34
 energy: -53.421971169115 gnorm: 0.000926455038 xtb: 6.5.0 (97a52f5)
H            0.88519602279079       -0.48722459733819       -1.76616836978552
N            0.78396591796078       -0.58778670229820       -0.76244114689018
C           -0.47550309368082       -0.16085794761214       -0.34239258766959
C           -1.55162321067102       -1.13673776996458       -0.65507680082514
C            1.97001819352432       -0.28837664923692       -0.08765824643033
C           -0.77954210764574        1.00587690944035        0.28084721989631
C           -2.08193944243416        1.40432610197053        0.76672441130593
N           -0.71402562059490        3.15904734575467        0.97845163096092
C            0.09234046346945        2.19428076072554        0.42181639881509
C           -1.99466660748653        2.67993084216109        1.18162141124755
C           -1.72345433761677       -2.25074839717043        0.15815835400116
C           -2.35072806680811       -0.98206074893217       -1.78109548823150
C           -2.70326528567876       -3.18155833504503       -0.13656970359742
C           -3.32614487538712       -1.91819871605265       -2.07620922836848
C           -3.50542304518109       -3.01726332119743       -1.25349967729123
C            2.00248649239508       -0.05027288912349        1.28486063842649
C            3.17536630565463       -0.48918538848494       -0.75876375624918
C            3.21059751872175        0.07380409600746        1.94158492330712
C            4.37978776147871       -0.36083629776402       -0.09664705860529
C            4.40490620890274       -0.07086017501494        1.25671573010699
H           -0.39931464491543        4.09072742075218        1.19145874865771
O            1.24236776010653        2.37197455589759        0.07037383748734
H           -1.09092267143488       -2.37728597281666        1.02426634495781
H           -2.21325253143111       -0.11971133763184       -2.41750460971804
H           -2.83815535285508       -4.03991021658141        0.50490504836757
H           -3.94569931187069       -1.79028215205423       -2.95160999595871
H           -4.26788931907120       -3.74646543487285       -1.48401260782662
H            1.07945017241785        0.04082599458832        1.83747344302944
H            3.16153004821223       -0.71693957290036       -1.81630591841788
H            3.21783804387503        0.27970440116534        3.00216315534183
H            5.30385491499122       -0.49795322662121       -0.63922180408335
H           -2.94272302774472        0.76693570657910        0.80207983934336
H           -2.74851049354847        3.31380041211248        1.60904334857069
H            5.34647422155510        0.03228331156010        1.77469252612207
