%RWF=/scratch/liuchw/Gau-25_27_Index_0-farH_in17/,1267GB
%Nosave
%Chk=25_27_Index_0-dma_temp.chk
%Mem=20GB
%Nproc=5
#P MP2/6-311G** Sp Density=MP2 MaxDisk=1267GB 

25_27_Index_0 Gaussian SP Calculation on node165.bme.utexas.edu

0 1
 N   -1.657027   -0.551231    0.296174
 C   -0.405237   -0.247231   -0.158135
 C    0.707086   -0.345529    0.873872
 N    1.739581    0.622909    0.532339
 O   -0.166683   -0.000686   -1.338640
 H    1.036994   -1.398436    0.867784
 H    0.320442   -0.140449    1.878622
 H   -2.418819   -0.420311   -0.357128
 H   -1.875623   -0.486183    1.279594
 H    2.629613    0.343036    0.937241
 H    1.845073    0.605812   -0.481344



