9
 energy: -11.391866038384 gnorm: 0.001288287326 xtb: 6.5.0 (97a52f5)
O            1.14477327219741       -0.56002841132275       -0.79312647552555
C            0.45994511735984        0.24691964526088        0.14451491884856
C           -1.01625089073645       -0.11522593413359        0.10305731584673
H            0.59118943779462        1.31111095529288       -0.10184558361186
H            0.85866098020317        0.07686721470667        1.15571691803854
H           -1.40741067505210        0.05542606703238       -0.89558931201315
H           -1.56899118860233        0.49061481521305        0.81522709103628
H           -1.14281394724473       -1.16555182378396        0.34845601965784
H            2.08089789408057       -0.34013152826556       -0.77641089227739
