8
 energy: -14.443367208540 gnorm: 0.000348438818 xtb: 6.5.0 (97a52f5)
H           -1.99222400444139        0.04229635834645       -0.45358325981194
C           -1.38552407645197        0.22218428099054        0.43561378740518
O           -0.14897484739864        0.82305321856447        0.05737479132580
C            0.85529817159101        0.00971229853549       -0.21625642098034
H           -1.20122931939421       -0.72575610790935        0.94407261612447
H           -1.88908138332091        0.92453978977731        1.09574315794605
O            0.84155856107846       -1.18444343010017       -0.18128980809092
H            1.73511589833765        0.61850560179526       -0.48441286391831
