8
 energy: -14.443378059104 gnorm: 0.000986640965 xtb: 6.5.0 (97a52f5)
H           -1.50110583788357       -0.60793903557331       -0.16733839338625
C           -1.34060642169671        0.16599234408152        0.58514192463767
O            0.01354430317319        0.61207165658958        0.54080055288519
C            0.81519103459169        0.05490007183872       -0.34835299662464
H           -1.53706640488513       -0.22917494811556        1.58150465871763
H           -1.98780477524075        1.02112274640971        0.39172346802867
O            0.53807231378778       -0.79716511120757       -1.13876266972293
H            1.81471578815351        0.51028527597692       -0.24745353453533
