%RWF=/scratch/liuchw/Gau-35_38_Index_0-farH_in17/,1267GB
%Nosave
%Chk=35_38_Index_0-dma_temp.chk
%Mem=20GB
%Nproc=5
#P MP2/6-311G** Sp Density=MP2 MaxDisk=1267GB 

35_38_Index_0 Gaussian SP Calculation on node165.bme.utexas.edu

0 1
 H   -1.774028   -0.182575   -0.443316
 C   -1.365447    0.208925    0.488793
 O   -0.094719    0.847823    0.248962
 C    0.841553    0.028644   -0.262516
 H   -1.249779   -0.607472    1.202357
 H   -2.003908    0.990089    0.893913
 O    0.690808   -1.148918   -0.519122
 H    1.770459    0.593576   -0.411809



