34
 energy: -53.433868563082 gnorm: 0.000541368337 xtb: 6.5.0 (97a52f5)
H            1.16964649595826        1.56763780406434        0.39516828769474
N            0.95501158471295        0.76108380032473       -0.20081155667002
C           -0.39922206003424        0.61390510663672       -0.28988943965449
C           -1.10299744151391       -0.68344737358094       -0.15118459780217
C            1.92706394378891       -0.22629470391317       -0.02975016975727
C           -1.16924747926809        1.75067159050002       -0.26843596530340
C           -2.60273780601111        1.88223798870480       -0.29005068251599
N           -1.73048596233739        3.90066972050703        0.11605992920683
C           -0.63679384894142        3.08349626174000        0.02296735456505
C           -2.89604170408865        3.17993075358155       -0.08108753721668
C           -1.37967806051776       -1.14608574609281        1.12970566687724
C           -1.50814409019882       -1.42986519781525       -1.25333320627461
C           -2.05523426127098       -2.34103155515670        1.30312843590112
C           -2.18649091524040       -2.62209704565121       -1.07428705793121
C           -2.45820482985075       -3.08065282625354        0.20427243431639
C            1.76882433840414       -1.57635148347951       -0.33657072355088
C            3.19583395378691        0.22646625015622        0.34925369497971
C            2.83399760168627       -2.44930193026829       -0.20037362155378
C            4.25160592422040       -0.65053684914937        0.48036520912391
C            4.07492182807424       -1.99915654451487        0.21218174087515
H           -1.68255027267665        4.88694361051485        0.30891644813461
O            0.52327339212132        3.41853202320309        0.24631196524207
H           -1.06609949072908       -0.56720759418354        1.98620852550594
H           -1.29190934292344       -1.06672822067628       -2.24755240592896
H           -2.26716169909913       -2.69523903455174        2.30100447779594
H           -2.49940480595572       -3.19641933926646       -1.93380938420559
H           -2.98426830634563       -4.01330343558508        0.34373549837704
H            0.82270813012478       -1.95640800509750       -0.68041062429398
H            3.33373160770252        1.27883393640587        0.55299581517851
H            2.68705743227236       -3.49461428372053       -0.42946506004830
H            5.21958948050663       -0.28086679818893        0.78470520494949
H           -3.29378716210312        1.08442847159691       -0.47658112853895
H           -3.84896185060220        3.67187380186833       -0.04467079194965
H            4.89954967634943       -2.68810416265957        0.31334225447284
