34
 energy: -53.420738096040 gnorm: 0.000645861698 xtb: 6.5.0 (97a52f5)
H            0.77860207309649       -1.12322453036801       -1.28627036787616
N            0.77801798454902       -0.84822770529111       -0.30821648971841
C           -0.46135735309360       -0.33695339705598        0.01010390195169
C           -1.55513199626477       -1.19988830666419       -0.51884406743710
C            2.02991553916389       -0.35475375982858        0.07108054205344
C           -0.81132088783781        0.87170581383104        0.54255737166974
C           -2.16724390291856        1.24112756729735        0.88765208412309
N           -0.90962539225827        3.07184577407140        1.06511925971039
C           -0.02217206014413        2.11488487217281        0.62848100330059
C           -2.17674159717131        2.54537667869809        1.21452681199585
C           -1.92587661726821       -2.36684599580405        0.13800687394457
C           -2.17299262769011       -0.86327294093703       -1.71755182899564
C           -2.92173119372382       -3.17310264714880       -0.38466329161006
C           -3.16324216126963       -1.67496563126714       -2.24099909458097
C           -3.54081223940652       -2.82890562713784       -1.57448708583067
C            2.23281728049857        0.27368971766879        1.30052557230156
C            3.14458979579619       -0.83000764177527       -0.62006105885931
C            3.51322076694623        0.57404056137305        1.72365726747346
C            4.42164665742789       -0.51728215197460       -0.19914843196791
C            4.61176090276483        0.20473069183395        0.96719670778853
H           -0.65648109747354        4.03570031903708        1.20219605816712
O            1.12376665109479        2.35515150399488        0.28857411637234
H           -1.43755807288521       -2.63176262831274        1.06418872379326
H           -1.88051602698832        0.04257746668358       -2.22927164484053
H           -3.21303648845510       -4.07333070809698        0.13610910677267
H           -3.64079484433642       -1.40671963961843       -3.17185083590895
H           -4.31629163410180       -3.45950953662150       -1.98335045429866
H            1.39266942281177        0.49564456632654        1.93730168362330
H            3.00133281404139       -1.40075050477243       -1.52869344325389
H            3.65267014725051        1.08807479503323        2.66307922375321
H            5.27151453864984       -0.85986063126607       -0.77131101199288
H           -2.99606899389132        0.56203335820688        0.91804381567197
H           -2.98978556038938        3.16636977992346        1.53967201321877
H            5.60965018347618        0.44940851778905        1.29870496948742
