34
 energy: -53.434333101922 gnorm: 0.000444859907 xtb: 6.5.0 (97a52f5)
H            1.18762460921676        1.43390880582782       -0.62530443889977
N            0.93007168860061        0.43931716524808       -0.51976318400687
C           -0.40032260896621        0.37894970584116       -0.22604498797379
C           -1.18870559661828       -0.87703470272044       -0.29998609306029
C            2.02199297742938       -0.25260509050073        0.00325937669337
C           -1.10426714766576        1.55091930784684       -0.10249405458073
C           -2.48486574096270        1.75408457332630        0.25358178722379
N           -1.49553438599106        3.75787311832517        0.14517089896411
C           -0.49314808053518        2.87889963101251       -0.15108142102181
C           -2.67737166717799        3.07905080651128        0.39643688837845
C           -1.38642025690463       -1.70160718543945        0.80326159796159
C           -1.93422872557540       -1.10513557837370       -1.45219623105742
C           -2.23449520082471       -2.79196532355266        0.71963416530770
C           -2.77495122604562       -2.20003372419584       -1.53653300407852
C           -2.92028093610309       -3.05147428636685       -0.45443471168700
C            1.93910874596410       -1.47597510244112        0.66363461794708
C            3.28622045536814        0.26972010985629       -0.28437711756944
C            3.08975477045987       -2.11272721567467        1.09347256181275
C            4.42776072760313       -0.37383910315671        0.14554082721333
C            4.33644285557659       -1.56770834253437        0.84431895959820
H           -1.37670989811831        4.75591031022302        0.19197355063664
O            0.67035337550219        3.18171302948379       -0.41501521148580
H           -0.89920379345499       -1.47302726714625        1.74075193395093
H           -1.82686871969743       -0.43457379151681       -2.29196174587202
H           -2.37164574863707       -3.43074882811967        1.57987874085083
H           -3.33233946385495       -2.37789163969264       -2.44429261286021
H           -3.58186919903248       -3.90248670582364       -0.51859805490832
H            0.98291288313403       -1.93662704489343        0.83933738801016
H            3.35656875946342        1.20372469220680       -0.82273785652098
H            3.00606184255651       -3.05208352524522        1.62044492380557
H            5.39556440141679        0.05310695760099       -0.07217649118216
H           -3.21038102336833        0.97637705611580        0.38540215718088
H           -3.56277799877282        3.61888386179934        0.67163983108662
H            5.22934431601505       -2.07189368383084        1.18131404014340
