%RWF=/scratch/liuchw/Gau-farH_in17/,12672GB
%Nosave
%Chk=farH_in17-opt_1.chk
%Mem=208GB
%Nproc=51
#P opt=(ModRedundant,maxcycles=400,Loose) MP2/6-31G* MaxDisk=12672GB 

farH_in17 Gaussian OPT Calculation on node165.bme.utexas.edu

1 1
 N   -1.869500   -0.604800   -2.056000
 N   -3.522500    3.048500   -0.304000
 N    2.967700   -1.225900    0.938300
 N    6.609300   -0.198000    0.919400
 C   -3.569300    0.849600   -1.009400
 C   -4.889100    1.211400   -0.436900
 C   -3.132000   -0.308900   -1.556000
 C   -2.710400    2.097600   -0.897300
 C   -4.787200    2.548300   -0.037000
 C   -6.081500    0.535200   -0.223500
 C   -4.064500   -1.440900   -1.761700
 C   -5.824800    3.248400    0.548200
 C   -7.161900    1.216300    0.371500
 C   -4.118300   -2.500300   -0.845900
 C   -4.891400   -1.471400   -2.894900
 C   -0.690300   -0.693300   -1.276900
 C   -5.004600   -3.560200   -1.046900
 C   -5.776500   -2.532600   -3.092600
 C   -0.699000   -0.876100    0.106100
 C    0.545700   -0.746700   -1.926200
 C   -5.835000   -3.573300   -2.166800
 C    0.496400   -1.040200    0.823600
 C    1.741100   -0.912600   -1.209900
 C    1.746200   -1.050800    0.182500
 C    4.207900   -0.750700    0.463500
 C    2.836100   -1.830700    2.266900
 C    5.417000   -0.912000    1.425500
 C    6.490300    1.264400    0.984300
 C    7.862500   -0.649200    1.540900
 C    7.579700    1.964000    0.134000
 C    9.073600    0.297700    1.305400
 C   10.063400    2.007500   -0.249000
 C   -7.027200    2.569200    0.751000
 C   -8.427800    0.459100    0.585700
 C  -10.636100    0.611800    1.329500
 O   -1.565700    2.293500   -1.257500
 O    4.378600   -0.195400   -0.626700
 O   -9.386700    1.266900    1.102500
 O   -8.557700   -0.725300    0.321900
 N    8.877000    1.153900    0.067600
 H   10.925500    1.350500   -0.390400
 H   -6.205200   -0.506500   -0.499700
 H   -1.681300   -0.100100   -2.921100
 H   -3.205200    3.987900   -0.120200
 H   -5.717600    4.286100    0.844400
 H   -3.471500   -2.506000    0.026600
 H   -4.853100   -0.667500   -3.625700
 H   -5.048000   -4.376200   -0.330300
 H   -6.421300   -2.548000   -3.967600
 H   -1.635600   -0.881500    0.655300
 H    0.596700   -0.665300   -3.009300
 H   -6.527600   -4.397500   -2.319600
 H    0.405700   -1.131600    1.901500
 H    2.653700   -0.969700   -1.794500
 H    3.761900   -2.313800    2.585000
 H    5.638500   -1.984900    1.468800
 H    6.572900    1.598000    2.027600
 H    8.111400   -1.635000    1.129800
 H    7.817300    2.944100    0.561500
 H    9.994300   -0.278300    1.166400
 H    9.852300    2.551900   -1.173100
 H    2.072800   -2.615500    2.262000
 H    5.161100   -0.544900    2.425100
 H    5.517900    1.623500    0.630900
 H    7.742600   -0.778300    2.624200
 H    7.252900    2.084900   -0.904200
 H    9.195000    0.989200    2.147000
 H   10.231500    2.697000    0.582500
 H    2.582700   -1.048300    2.988800
 H   -7.857200    3.101100    1.211800
 H  -10.517400   -0.198700    2.055500
 H  -11.333400    1.346400    1.741500
 H  -11.047200    0.233600    0.388200
 H    8.771100    0.509800   -0.732200

43 1 7 5 F
16 1 7 5 F
43 1 16 19 F
7 1 16 19 F
25 3 24 22 F
24 3 26 55 F
28 4 27 25 F
1 7 11 14 F
3 25 27 4 F
13 34 38 35 F


