11
 energy: -17.233770406416 gnorm: 0.000803671518 xtb: 6.5.0 (97a52f5)
N           -1.38059332756586        0.04968118436171        0.24631965989747
C           -0.43614351521223       -0.84119705726543       -0.13935490470962
C            0.88291054092002       -0.70900739180903        0.61331005285247
N            1.14959214944088        0.66125424917564        1.04127339678862
O           -0.64584248347401       -1.72314323718628       -0.94046585519485
H            1.67970435634325       -1.16941220835565        0.01624110559835
H            0.73919941765122       -1.31199283319165        1.51940312046323
H           -2.24503976202079        0.05676022662051       -0.27270187668958
H           -1.09990810987697        0.90747083703365        0.69070776307013
H            2.12788409854328        0.76101937320962        1.28898832904024
H            0.98363963525120        1.30026885740693        0.26665822888353
