%RWF=/scratch/liuchw/Gau-13_34_Index_0-farH_in17/,1267GB
%Nosave
%Chk=13_34_Index_0-opt_1.chk
%Mem=20GB
%Nproc=5
#P opt=(ModRedundant,maxcycles=400,Loose) MP2/6-31G* MaxDisk=1267GB 

13_34_Index_0 Gaussian OPT Calculation on node165.bme.utexas.edu

0 1
 C   -6.081500    0.535200   -0.223500
 C   -7.161900    1.216300    0.371500
 C   -8.427800    0.459100    0.585700
 O   -9.386700    1.266900    1.102500
 C   -7.027200    2.569200    0.751000
 O   -8.557700   -0.725300    0.321900
 C   -4.889100    1.211400   -0.436900
 C   -4.787200    2.548300   -0.037000
 H   -6.205200   -0.506500   -0.499700
 C   -5.824800    3.248400    0.548200
 H   -7.857200    3.101100    1.211800
 H   -5.717600    4.286100    0.844400
 H  -10.286400    0.903800    1.299700
 H   -4.037000    0.704400   -0.913100
 H   -3.831500    3.069000   -0.196800


