15
 energy: -26.173032981749 gnorm: 0.000516011812 xtb: 6.5.0 (97a52f5)
C            0.91435132968758       -0.75900593083919       -0.55941709499676
C           -0.15336804121327       -0.08048602408828        0.02538578702924
C           -1.42060482367183       -0.81210003975375        0.23605501429704
O           -2.38929341435141       -0.06022665046704        0.78565205093488
C           -0.00942620595018        1.25471099452486        0.39460779508480
O           -1.60101609071899       -1.97065196193166       -0.04820084816705
C            2.11361703180692       -0.10757388891136       -0.77220555194061
C            2.25385022530587        1.22150772205140       -0.40323347311902
H            0.77919666764003       -1.79326588115471       -0.83758069474723
C            1.19407890764172        1.89955678296416        0.17878601515644
H           -0.83967993568599        1.77382822505317        0.84722611007840
H            1.30812521057063        2.93472777938157        0.46465502104259
H           -3.19062103183118       -0.59472990458906        0.89762402380762
H            2.94071718142147       -0.63290356851159       -1.22590072539039
H            3.19180897934864        1.73074536627148       -0.56991340906995
