24
 energy: -35.272368510469 gnorm: 0.000583897159 xtb: 6.5.0 (97a52f5)
C           -0.74139356312635       -0.34332431003930        0.20666657535262
N            0.31660085852312       -0.43126464472438        1.13759399757441
C            1.49848365741811        0.30969555622317        1.02989791102626
C            2.50643992389867       -0.07612083037517       -0.04448903136984
C           -0.05919226836906       -0.66857013941882        2.52935066824154
O            1.83774356942396        1.05720268599296        1.92211231494402
C           -2.03048255159068       -0.00199159747062        0.61985219855081
C           -2.83002301071403       -0.07094070071086       -1.64671988328492
C           -3.05906439277874        0.11950579931153       -0.29617299794958
C           -1.55220408072951       -0.39034577978201       -2.06953488115444
C           -0.52014646601602       -0.52017104386521       -1.15882244589241
H            0.74541732541919       -1.23040601791433        3.00262120603979
H           -0.97946160493530       -1.24341981115150        2.56164486888885
H           -0.20037926743508        0.26237460252182        3.08577454830974
N            3.72696690371425        0.70574513112917        0.00849975976560
H            2.10991021871158        0.02032139657165       -1.05837807866924
H            2.75217865130877       -1.13367476428060        0.09808101538350
H           -2.24293794765927        0.19677476383365        1.65777292224369
H           -4.04667202740891        0.38129180969804        0.05434025400396
H           -1.35106349112476       -0.54425973039217       -3.11940029231307
H            0.45002065146197       -0.81907290526554       -1.51706714738786
H            3.47835083179833        1.69289691969379       -0.02444914467380
H           -3.63450864840382        0.02923406265290       -2.35890447623473
H            4.13540173861359        0.60551754776196        0.93692513860483
