24
 energy: -35.286054429987 gnorm: 0.000724745315 xtb: 6.5.0 (97a52f5)
C           -0.83978143325630       -0.09677709456448        0.06231915500630
N            0.32554775636619       -0.24461610219466        0.86267775562349
C            1.45980673180788        0.41764245971193        0.50108221556383
C            2.79914249885524       -0.12731520082807        1.00199564177495
C            0.22417359369072       -1.17110672309922        1.97012507425692
O            1.43686238346139        1.35456435295473       -0.27390586662235
C           -2.05836402361644        0.22035239672891        0.64954248997018
C           -3.13042259144628        0.08297419787753       -1.49249829505271
C           -3.19839501058515        0.30937874239507       -0.12862487993953
C           -1.91641639064966       -0.23606411317388       -2.07716084257801
C           -0.77415860861696       -0.33589714449149       -1.30443852877188
H            1.18327824202655       -1.64078283899155        2.17178080228673
H           -0.48613937342100       -1.95698094382793        1.71184399029320
H           -0.11694164640148       -0.66629333179185        2.87807090409066
N            3.92543672144662        0.70865045459373        0.62900488899491
H            2.95619513550030       -1.12509825239741        0.57576122828771
H            2.82273119047732       -0.23861165259130        2.09019004734986
H           -2.11080530951611        0.40644334110220        1.71157051986621
H           -4.14187446978895        0.56119298707411        0.33250659216974
H           -1.85907003225627       -0.41737109692513       -3.14005667171839
H            0.17375374185583       -0.58253994609360       -1.75742887706582
H            3.85744125336425        0.90290188335829       -0.36943862879451
H           -4.02102728675511        0.15557566180309       -2.09844975208473
H            3.79901793745739        1.62677897337110        1.05072602709333
