24
 energy: -35.278174469580 gnorm: 0.000816663597 xtb: 6.5.0 (97a52f5)
C           -0.73842321677186       -0.44886358616634       -0.09916393875137
N            0.45974533737407       -0.90297849937511        0.49989982404694
C            1.64162487762482       -0.25804564928365        0.16451268760037
C            2.40838072858701        0.41883271700241        1.30105443817087
C            0.36113452858265       -1.53128825441219        1.80401028390359
O            1.98724628503348       -0.09107603622212       -0.98386536610722
C           -1.83616331453710       -0.08421327999590        0.67548114503832
C           -3.06860035005424        0.48200303594815       -1.30986219177004
C           -2.99206076925033        0.37198249407157        0.06706159019678
C           -1.97363518472982        0.13094636393743       -2.08126816492306
C           -0.81878614060644       -0.33931816101756       -1.48550454496190
H            1.14792562520902       -2.27950957899204        1.89551051195539
H           -0.60808662171033       -2.01951680810683        1.88008057156859
H            0.44662085014308       -0.82414013519057        2.63630806398590
N            3.57850638149722        1.14561162963285        0.85053287486449
H            2.73452291011822       -0.29176011988052        2.06779651625363
H            1.72755338291311        1.12153983895646        1.79484372377491
H           -1.79589851926562       -0.13410352864844        1.75264854085379
H           -3.83578149429236        0.65226230636116        0.68095184422284
H           -2.02015188784179        0.21335700311996       -3.15691918339336
H            0.03326372286823       -0.61150774670492       -2.08593902363942
H            4.16031167857585        0.51120889060494        0.30595573637430
H           -3.97329500226153        0.84119669218411       -1.77658308008695
H            3.28403718279482        1.83438144217648        0.15965116082367
