24
 energy: -35.268789180646 gnorm: 0.000876719196 xtb: 6.5.0 (97a52f5)
C           -0.69369259031054       -0.27944519825184        0.26888106059838
N            0.41903766706034       -0.75699468593529        1.04248593907188
C            1.66494234867228       -0.34164001691765        0.53036553250461
C            2.12062455418201        0.97511830549492        1.13348477864705
C            0.31643956812541       -2.20721051487527        1.23503390281360
O            2.40710525456106       -1.04432050338646       -0.11382008870646
C           -1.73174365774799        0.36976865972281        0.92168186163281
C           -2.89680178137608        0.59455979137163       -1.16367204709194
C           -2.83270702626113        0.80299292005591        0.20388589702692
C           -1.85821413970237       -0.04974937879420       -1.81455298653802
C           -0.75814603429383       -0.49253021032076       -1.10186703084610
H            1.31192399170888       -2.62802945573472        1.35295764425077
H           -0.19258578282089       -2.70964948510663        0.40891871919766
H           -0.25914589949683       -2.37673711478254        2.14656918593852
N            3.35299480919702        1.50643097650871        0.58308962784234
H            2.27390074449111        0.78860486876960        2.20282535801338
H            1.33433273256379        1.73415512811127        1.07106909924886
H           -1.66638478518512        0.52710562380542        1.98706722771385
H           -3.64175698043707        1.30546835763954        0.71294905024876
H           -1.90422660968376       -0.21140415328922       -2.88139948820682
H            0.05526460817786       -0.99645686158484       -1.60450166270794
H            4.03532064808521        0.74874399105976        0.56210737201924
H           -3.75583975903631        0.93418553932831       -1.72261469386002
H            3.20935010952646        1.71403442711147       -0.40375123881147
