24
 energy: -35.283247577874 gnorm: 0.000968621955 xtb: 6.5.0 (97a52f5)
C           -0.70260011644532       -0.35254154649669        0.24178179389082
N            0.31957093733473       -0.41032723144122        1.21434466423212
C            1.54060008969245        0.22009200209323        1.12778702193067
C            2.32826097378338        0.16844771639746       -0.17513415914895
C           -0.10100711829202       -0.67200583451078        2.58586960919747
O            2.07535672399663        0.64785161308201        2.13320604884486
C           -1.97718186678319        0.08802712084964        0.60299670900548
C           -2.74351224491732       -0.13126276424864       -1.66304465817886
C           -2.98408636452585        0.18861463158185       -0.33829412426418
C           -1.48206538612375       -0.56178511432793       -2.03210430022375
C           -0.46899521062069       -0.66824189115627       -1.09543330959884
H            0.70401954741100       -1.20703260050722        3.08862446956975
H           -1.00175582883863       -1.27995713893551        2.57502371207214
H           -0.28533563364863        0.25111099502337        3.14251181992698
N            3.63133816508301        0.79912368722912       -0.07442363983732
H            1.79040221981031        0.64425273208506       -1.00242370052123
H            2.48212487878175       -0.87848824086438       -0.45579785666100
H           -2.18662939340907        0.37506049969035        1.62109762142621
H           -3.96129597913333        0.53154826946643       -0.03185008417587
H           -1.27861584989509       -0.82308056616089       -3.05996628697398
H            0.48400225321246       -1.05921107707850       -1.40596766882097
H            3.50527969165851        1.74468540559243        0.28345077687763
H           -3.53018746835273       -0.04843650029138       -2.39704841482307
H            4.15229798022203        0.34055483292808        0.67199097625356
