24
 energy: -35.280834168328 gnorm: 0.000697371188 xtb: 6.5.0 (97a52f5)
C           -0.64189806755500       -0.30275540816639        0.28519463001051
N            0.46249262403442       -0.85421067714854        1.00319259728090
C            1.72992141753208       -0.44116445969595        0.64687316229902
C            1.96037319155876        1.05059412616280        0.86575460090680
C            0.28921157357849       -2.28019987219172        1.26738838576959
O            2.65432091406499       -1.19714969497116        0.43281583308382
C           -1.71762033112149        0.22794432585505        0.98415179365193
C           -2.84234561203135        0.66916604157399       -1.08896613723342
C           -2.81503233786060        0.71277693864255        0.29512130267743
C           -1.77067760559099        0.13665575957357       -1.78571330078883
C           -0.67367671537596       -0.35714096849081       -1.10244952144763
H            1.27034906228746       -2.74721271296209        1.32195199962242
H           -0.30325819183659       -2.76678911443569        0.49016640889125
H           -0.22641689145604       -2.39627430400381        2.22220050552702
N            3.25301596608996        1.52826731496039        0.41405066728254
H            1.89061882038580        1.22796888215408        1.94511629851653
H            1.17192452302857        1.65552638238187        0.40620894683506
H           -1.68408143136756        0.25825671418160        2.06227016387375
H           -3.65070900860063        1.12647180249500        0.83960380471622
H           -1.79033699082125        0.09884502710219       -2.86471453879016
H            0.16537463480099       -0.77882928706193       -1.63766498699354
H            3.96147355002768        0.88895603771117        0.77378206275477
H           -3.69930938763902        1.04832632920560       -1.62480794758030
H            3.31627728386739        1.39897280712807       -0.59433373086567
