24
 energy: -35.265430748497 gnorm: 0.000445327064 xtb: 6.5.0 (97a52f5)
C           -0.78035607037594       -0.27480723487541        0.18371674377627
N            0.29848206766018       -0.44926373486360        1.06821076190776
C            1.44668701680155        0.38952883984040        0.89583092297193
C            2.61237980333642       -0.26759233705928        0.18414825484820
C            0.03165290949406       -0.69629060213733        2.47700179797401
O            1.52625796935181        1.47867750909832        1.39629252101600
C           -2.08989609579196       -0.08607165154306        0.62501242789547
C           -2.89274320040037       -0.02511609261208       -1.64124600863474
C           -3.12958888146716        0.02732665267699       -0.28007638753462
C           -1.59316804492997       -0.18825739071937       -2.08992396236412
C           -0.55080880355526       -0.31376364717228       -1.19322808647547
H            0.83733446109687       -1.31799700251566        2.87048006645386
H           -0.91275159756228       -1.22100059717651        2.58260789015354
H           -0.01729084180064        0.22928580942810        3.06202553392708
N            3.80181177986397        0.55711695729722        0.09359993521287
H            2.33239079129789       -0.59382097126593       -0.82079436195703
H            2.85396115358474       -1.18113254210886        0.74005027919997
H           -2.31226013433627       -0.00440649460222        1.67698437167127
H           -4.13462962096624        0.17117542318055        0.08929494364276
H           -1.38634815708668       -0.22384669754968       -3.14950432652059
H            0.45056435419693       -0.44684973322423       -1.56999748997294
H            3.54716769637180        1.44573843071222       -0.33522533035323
H           -3.70702755148775        0.06719596375538       -2.34336425505517
H            4.07816699670407        0.83117114343612        1.03529976821692
