19
 energy: -28.699011394923 gnorm: 0.000846749156 xtb: 6.5.0 (97a52f5)
C            2.33467225151290       -0.04300647915457        0.38761913867440
N            1.09614342451155       -0.29693856531381        0.88100880361163
C           -0.10465211358504       -0.13798542289038        0.15152048514384
C           -0.09456347118882        0.16314224147779       -1.21096180659164
C            1.00720645467713       -0.72956755525022        2.26173064140105
C           -1.33966186708529       -0.22095362507589        0.79733271499276
C           -2.51839200862327       -0.05584128125628        0.09208805556449
C           -2.49932278853224        0.21179298441836       -1.26415693377031
C           -1.27854853205081        0.32598599091757       -1.90528238829098
H           -1.41016051163535       -0.40015421390439        1.85742634712947
H            0.84060304827092        0.25911433014545       -1.73353386167800
O            2.64709764565097        0.31637866728265       -0.71958282067600
H            1.97373232497832       -1.10566873444803        2.59101449501306
H            0.27011137356488       -1.52539357838353        2.36158207095893
H            0.71500957973547        0.09950301190940        2.91322026917808
H           -3.45945853826628       -0.13151798621583        0.61719417946579
H           -1.24034606301398        0.54913827445795       -2.96109091809454
H           -3.42174635653347        0.33804130151878       -1.81027009384862
H            3.10595814761238       -0.21728334023502        1.16372663181660
