19
 energy: -28.700404456764 gnorm: 0.000697386580 xtb: 6.5.0 (97a52f5)
C            2.21493026441695        0.45752280183623        0.60431533836120
N            1.07719987896355       -0.19468494648674        0.94186838007668
C           -0.10877483840170       -0.08650507629341        0.17727933362141
C           -0.04642884930949       -0.00814696204234       -1.21137759165746
C            1.02597379479714       -0.95720385284006        2.17013185533119
C           -1.35320873216233       -0.08810989601131        0.80164471468342
C           -2.50998680142502        0.00107187777683        0.04856815615436
C           -2.44440606248982        0.09041809477552       -1.33060362210048
C           -1.20850689050211        0.08621145463175       -1.95426360902046
H           -1.43006512346388       -0.14665037492531        1.87590446926715
H            0.91040572898974       -0.01134452072598       -1.70540324489626
O            2.39420870904566        1.15966452548737       -0.35825029218259
H            0.49984115378459       -1.89666850241428        1.99408459317402
H            0.51034346823535       -0.41217452023135        2.96518607486796
H            2.03901743851566       -1.17775531663138        2.50244901685598
H           -3.46810274996051        0.00268545915275        0.54724063512610
H           -1.14518047059064        0.14942032154083       -3.03023053663119
H           -3.34984045888190        0.16136723766749       -1.91417463492090
H            3.01626053043888        0.26966620573351        1.34621598388988
