19
 energy: -28.697890934163 gnorm: 0.000520535573 xtb: 6.5.0 (97a52f5)
C            1.65704261266979        0.83964275328708        1.62461529971965
N            1.06015256143802       -0.18957405796940        0.97436541559027
C           -0.12999328389835       -0.03358538964511        0.21868198775177
C           -0.45555354597566       -0.93216271030931       -0.79583311824242
C            1.56740567382074       -1.52741642124356        1.20187300392596
C           -1.02144147696557        1.00086106679441        0.49971160910808
C           -2.18817723605052        1.14040827773867       -0.22871728333575
C           -2.49962988315405        0.25047119652921       -1.24131198527188
C           -1.62521357719633       -0.78455718193748       -1.51896352705609
H           -0.79987097381811        1.70333088577311        1.28419226761854
H            0.20397119832635       -1.74399853966758       -1.05763221180291
O            1.32459369080806        1.99784888640810        1.64491492112730
H            2.57001921065020       -1.47321568264787        1.62079752290441
H            1.60708717702773       -2.10108247696761        0.27917278252898
H            0.91952668940209       -2.06164976370660        1.90381011685650
H           -2.86234849880165        1.95003804414887        0.00726717188554
H           -1.85117190785454       -1.48959142422694       -2.30552412289983
H           -3.41271082460179        0.35987213052618       -1.80646645550394
H            2.55999742417352        0.49314740711590        2.16563361509593
