19
 energy: -28.698982786620 gnorm: 0.000688725919 xtb: 6.5.0 (97a52f5)
C            1.43541263380739        0.68846096813407        1.98700608265365
N            0.99458792468371       -0.20387998020261        1.06403257020467
C           -0.18945478311249       -0.05049771828104        0.30608816261439
C           -0.64586591332836       -1.08484518064318       -0.51281870222334
C            1.76821181296449       -1.41743754543393        0.89229555591672
C           -0.90497715974911        1.14771081938464        0.31136484593656
C           -2.03616792485915        1.29688867197449       -0.46856237476549
C           -2.48147124534783        0.26699008788431       -1.27821686583957
C           -1.78002269502832       -0.92419149471364       -1.28883792849353
H           -0.57945281646259        1.96560900129957        0.92932396451565
H           -0.15231904594573       -2.04223517165831       -0.53933827412992
O            0.95312413602323        1.74644022359670        2.30447654393162
H            2.76897824411416       -1.27352357687505        1.29426271253053
H            1.84843458444830       -1.66897771976895       -0.16445950807439
H            1.29946152717506       -2.25690746362674        1.41451219528985
H           -2.57025784758882        2.23501821220680       -0.44290758732735
H           -2.11238765538148       -1.74420946908882       -1.90864235076384
H           -3.36277580158815        0.38893145190050       -1.88935761557100
H            2.37062605517574        0.32944289391112        2.46036555359487
