19
 energy: -28.698896651007 gnorm: 0.000728007758 xtb: 6.5.0 (97a52f5)
C            2.24890707187742        0.29337958237003        0.49292497506539
N            1.08286755526959       -0.23784065495889        0.92857063135254
C           -0.12344912478871       -0.08801469406948        0.19636198480944
C           -0.10841461086527       -0.12168038057360       -1.19497617755201
C            1.05995106062548       -1.04548340491897        2.12793748444392
C           -1.33249280457628        0.11665138005968        0.85511411756628
C           -2.50163830848469        0.27473947371219        0.13378787401061
C           -2.48346130999100        0.23652361253610       -1.24947136984447
C           -1.28210066391267        0.04092597927118       -1.90797176644926
H           -1.37256608789316        0.17133459320371        1.93204516118337
H            0.82129365475193       -0.27267403278288       -1.71708448024562
O            2.43553220904471        0.90289065978512       -0.52953090939984
H            2.02248370214569       -0.96861696714392        2.63170302917410
H            0.88734067704160       -2.09448176803526        1.87259551527211
H            0.28612946283033       -0.71722693531136        2.81963892306710
H           -3.43141612901536        0.43477089684436        0.65976381335784
H           -1.25478840277510        0.01058467673597       -2.98691800244042
H           -3.39854822002317        0.36117444353802       -1.80844209922944
H            3.06805227873865        0.10183053973802        1.21453529585832
