19
 energy: -28.698290000101 gnorm: 0.000785609592 xtb: 6.5.0 (97a52f5)
C            2.19531707172170        0.43875313812022        0.58408918795103
N            1.05694061914181       -0.18934796741908        0.96159120612283
C           -0.13294256020235       -0.10309194813904        0.19596578513181
C           -0.07528840148298       -0.08902544655214       -1.19413344494573
C            1.08798678176493       -1.03583321757480        2.13756223941016
C           -1.36789459942535        0.03512756137920        0.82465311331544
C           -2.52337654622222        0.14892074531726        0.07438037380385
C           -2.46417716414095        0.14275022105819       -1.30865600852659
C           -1.23626418526400        0.02954879824187       -1.93652982663939
H           -1.43496121037379        0.07721316791187        1.90173145702142
H            0.87599968599493       -0.17512640543665       -1.69172001118246
O            2.37136406777227        1.09520546943542       -0.41110367325260
H            1.52644407208856       -2.00831022686495        1.89377777369405
H            0.08281892574319       -1.19963766891147        2.51379898131801
H            1.68359624283380       -0.57096894581671        2.92345827713683
H           -3.47397659018369        0.25477144037073        0.57624654235770
H           -1.17755762497355        0.03238746533370       -3.01462096907996
H           -3.36864543372818        0.23363551016327       -1.89092457553438
H            2.99829882893581        0.28181329938308        1.33101854189793
