19
 energy: -28.700411531994 gnorm: 0.000386255484 xtb: 6.5.0 (97a52f5)
C            2.29911782272136        0.10082367490675        0.38201978500349
N            1.10859459850472       -0.34109969061311        0.85202766686442
C           -0.10716303700022       -0.10220463853748        0.16809101580547
C           -0.15008503060765       -0.13053262043450       -1.22314519189892
C            1.04466127979078       -1.00054973255112        2.13786401223464
C           -1.28080357976582        0.13482699952785        0.87856743507283
C           -2.47014639300772        0.35041003589972        0.20603499509200
C           -2.50800067625493        0.33053468952177       -1.17697442247185
C           -1.34322243232788        0.09077426275232       -1.88558000519118
H           -1.27505421848389        0.16507068110496        1.95678895977447
H            0.75077807401384       -0.31638683918143       -1.78301142849551
O            2.50090669272133        0.69833342608826       -0.64453551312456
H            0.69598765180742       -0.32315877364686        2.92243217812857
H            2.03891820233319       -1.34864643875768        2.41428092358119
H            0.36883486071340       -1.85408850998466        2.08058838289762
H           -3.37190672193984        0.53671521147690        0.77073161980482
H           -1.36154024400489        0.06765003821342       -2.96485058324798
H           -3.43851900746029        0.49919017468128       -1.69762599080120
H            3.12232314824709       -0.15887595046630        1.07688215097173
