%RWF=/scratch/liuchw/Gau-4_27_Index_0-farH_in17/,1267GB
%Nosave
%Chk=4_27_Index_0-dma_temp.chk
%Mem=20GB
%Nproc=5
#P MP2/6-311G** Sp Density=MP2 MaxDisk=1267GB 

4_27_Index_0 Gaussian SP Calculation on node165.bme.utexas.edu

0 1
 C    1.984075   -0.425096    0.757786
 N    0.796641    0.036285    0.052986
 C   -0.370010   -0.666759    0.532198
 C   -1.609223   -0.484838   -0.308646
 C    0.647890    1.478972    0.206125
 H   -0.163735   -1.746632    0.538336
 H   -0.643479   -0.411143    1.580125
 O   -1.700801    0.202066   -1.313560
 H    0.512277    1.776662    1.262119
 H   -0.204322    1.821871   -0.377985
 H    2.112172   -1.499141    0.599605
 H    1.941589   -0.234479    1.845493
 H    2.860067    0.087896    0.354184
 H   -2.484625   -1.057778    0.065915
 H    1.546605    1.968882   -0.175341



