14
 energy: -14.016805709209 gnorm: 0.000195477720 xtb: 6.5.0 (97a52f5)
H            1.28254350391761        0.55148762391324       -1.67704160469703
C            1.15507416441211        0.56355233010748       -0.59535452622472
N           -0.00708801638326       -0.26730283705747       -0.20729672482885
H           -0.03841193650477       -1.06130371623893       -0.85725965869419
H            0.98717010063574        1.59841004727615       -0.30193471923683
H            2.06814410149053        0.19615128838768       -0.13521310175205
C           -1.27669278746770        0.46555213859283       -0.35477848460617
C            0.14753900628590       -0.80529986138212        1.15672499168536
H           -1.28529485081315        1.32834245109314        0.30917367174365
H           -1.40024141801513        0.80517886681377       -1.38171817454791
H            1.09132033696704       -1.33794571314653        1.25304030105961
H            0.13967703426468        0.01545267111813        1.87316600430716
H           -2.11654033151193       -0.17871253058470       -0.10007446200336
H           -0.66860189727766       -1.48479175889266        1.39457449779533
