14
 energy: -14.018803291629 gnorm: 0.000318044210 xtb: 6.5.0 (97a52f5)
H            1.44867898285961        1.16160964835902        0.26752529751586
C            1.09407372047777        0.63853454700441       -0.61927205981863
N           -0.09747515847774       -0.16241264595426       -0.28263553297495
H           -0.36718591642598       -0.67395981129433       -1.13179437358335
H            1.89004150746382       -0.00263896050976       -0.99293987657790
H            0.85321549789103        1.37374591902875       -1.38514393877220
C           -1.23886010549814        0.69097470176593        0.09171210646158
C            0.21001071896988       -1.15459606188221        0.76244730641474
H           -0.98917771283777        1.27015921726229        0.97968408984995
H           -1.48107819303572        1.37787743725983       -0.71688407807848
H            1.06084686554412       -1.76553251204511        0.46728622026623
H            0.45569170116748       -0.64236078083965        1.69173297423370
H           -2.11400376072125        0.08075967730161        0.30714419412076
H           -0.64618313737713       -1.80338838545653        0.93714568094264
