8
 energy: -14.443378147334 gnorm: 0.000099403813 xtb: 6.5.0 (97a52f5)
H           -1.69505930186645       -1.03976260283503        0.84347489663422
C           -1.31077848815761       -0.04214502251565        0.63218309544273
O            0.11346195371550       -0.08886436931009        0.69680102581315
C            0.78913641547782        0.23730431126351       -0.38990899782425
H           -1.66321436830531        0.65830090755694        1.38886236626997
H           -1.62669073963048        0.28233655532360       -0.36069656291874
O            0.34225393653273        0.57470249001441       -1.44543923521437
H            1.86583060223382        0.14821972050230       -0.16801357820272
