8
 energy: -14.443369637193 gnorm: 0.000103734714 xtb: 6.5.0 (97a52f5)
H           -1.78327001360615       -0.17878957236170       -0.43765453184231
C           -1.36340565653314        0.21509941465232        0.48969399481784
O           -0.09372009023355        0.81316691088131        0.23949077692996
C            0.83590868938541        0.01969038562149       -0.26258556309803
H           -1.25979630358173       -0.60294828321972        1.20486843382942
H           -1.99688306461279        0.99971245672011        0.89421886146277
O            0.71564857674343       -1.13971218245785       -0.52444714778404
H            1.76045686243852        0.60387288016403       -0.40632281431560
