%RWF=/scratch/liuchw/Gau-1_7_Index_0-farH_in17/,1267GB
%Nosave
%Chk=1_7_Index_0-dma_temp.chk
%Mem=20GB
%Nproc=5
#P MP2/6-311G** Sp Density=MP2 MaxDisk=1267GB 

1_7_Index_0 Gaussian SP Calculation on node165.bme.utexas.edu

0 1
 H    0.997937    0.308778   -1.903577
 N    0.820413   -0.224546   -1.054766
 C   -0.475925   -0.008758   -0.504109
 C   -1.456611   -1.106309   -0.669423
 C    1.938857   -0.263198   -0.202879
 C   -0.839314    1.175920    0.052534
 C   -2.087963    1.532578    0.693809
 N   -0.715601    3.331909    0.777588
 C    0.038112    2.396549    0.080862
 C   -1.965812    2.815127    1.118258
 C   -1.497917   -2.179116    0.230452
 C   -2.389801   -1.046598   -1.712237
 C   -2.442614   -3.191458    0.070429
 C   -3.329503   -2.064085   -1.872878
 C   -3.360437   -3.135393   -0.979619
 C    1.814645   -0.490488    1.173684
 C    3.219990   -0.152931   -0.759443
 C    2.953707   -0.594746    1.970698
 C    4.350030   -0.253767    0.044767
 C    4.227223   -0.483135    1.416034
 H   -0.406808    4.285901    0.910372
 O    1.140442    2.589355   -0.424191
 H   -0.774305   -2.228923    1.040464
 H   -2.370730   -0.202205   -2.398173
 H   -2.468189   -4.021623    0.771990
 H   -4.045712   -2.014265   -2.689364
 H   -4.095567   -3.926438   -1.103329
 H    0.830463   -0.555986    1.628668
 H    3.323931    0.027138   -1.827812
 H    2.838199   -0.768085    3.038249
 H    5.334243   -0.154860   -0.406919
 H   -2.937586    0.882308    0.847750
 H   -2.675198    3.427203    1.661111
 H    5.110798   -0.562851    2.043060



