14
 energy: -14.016214902590 gnorm: 0.000976568496 xtb: 6.5.0 (97a52f5)
H            1.72428893942072        0.79923918455283        0.26498149193728
C            1.11260846631931        0.62799573388852       -0.61758366599642
N           -0.08318382505005       -0.17560494219045       -0.26967516872768
H           -0.32217267238846       -0.73551423164800       -1.09620541289168
H            1.70274410681057        0.13127069119337       -1.38437232653062
H            0.81179911350139        1.59523230123632       -1.01739929556983
C           -1.25381007400852        0.66976350220921        0.02712652191309
C            0.20413594703010       -1.11719073969212        0.82703153074141
H           -1.04136383132252        1.29956548594736        0.89037489975838
H           -1.48834896323607        1.30724460509468       -0.82290454605767
H            1.06882478081339       -1.73033247740017        0.57942823564117
H            0.41289539297998       -0.56361824654544        1.74133287633771
H           -2.12081398283085        0.05107173476691        0.25160683669945
H           -0.64900741803899       -1.77034860141301        1.00226502274540
