14
 energy: -14.018806695895 gnorm: 0.000129100110 xtb: 6.5.0 (97a52f5)
H            1.99836290647570       -0.04015994331716       -0.75603050376411
C            1.12308781040231        0.59038390993220       -0.61372418185619
N           -0.04811444218251       -0.22716016813709       -0.24711588534862
H           -0.18326342600802       -0.91501980821374       -0.99818995070392
H            0.93111101989879        1.13903682774642       -1.53394717378970
H            1.33258766164780        1.30674765926390        0.17955997676540
C           -1.27636626413959        0.58343150895885       -0.17408919210681
C            0.19430559902008       -0.96770354211716        1.00343780267943
H           -1.17003396465057        1.34318238305784        0.59901006244506
H           -1.46315217354720        1.07697120935360       -1.12583639886642
H            1.11017360916017       -1.55058359886771        0.92813823723257
H            0.29610956333800       -0.26575184519895        1.82996294268608
H           -2.13138188720570       -0.04478749667278        0.06858113651413
H           -0.63483001220925       -1.63981411578824        1.21625114811307
