14
 energy: -14.014166872790 gnorm: 0.000852895387 xtb: 6.5.0 (97a52f5)
H            1.95156314500077        0.40198625385688        0.04048675940607
C            1.12149915077337        0.62176379810275       -0.62692026438207
N           -0.07045865066627       -0.19201624920536       -0.26260040514925
H           -0.27582985172071       -0.79914881139438       -1.06347704897588
H            1.43982105971075        0.41569075543575       -1.64568832815355
H            0.89724087534381        1.68288752103621       -0.54395865663928
C           -1.26598940899825        0.64072409217351       -0.03878271052681
C            0.19696815036667       -1.06952983159164        0.89186279055308
H           -1.09398862570551        1.31443840493666        0.79933031950268
H           -1.49086280247506        1.22636536657854       -0.92828349566170
H            1.07733999156375       -1.68196003769755        0.70690135416236
H            0.37043457411566       -0.46217996073617        1.77939068707432
H           -2.12617994279937        0.01350665335525        0.18973133968083
H           -0.65296266450962       -1.72375595485043        1.07801566910920
