19
 energy: -28.699797852610 gnorm: 0.000840325245 xtb: 6.5.0 (97a52f5)
C            2.18261609295219        0.49842947455852        0.63898242851218
N            1.06332800996912       -0.20034975890797        0.94599259838512
C           -0.11475304626764       -0.11530373081391        0.16939979241685
C           -0.03917525416360       -0.00350268182216       -1.21582045376605
C            1.04169008934611       -0.95717822337336        2.18217518549769
C           -1.36451257699777       -0.11806233488574        0.78431330630849
C           -2.51532179461644       -0.03410453309241        0.02207971857612
C           -2.43747559971590        0.06676034089949       -1.35597891831184
C           -1.19595444054104        0.08687584881054       -1.96787614426607
H           -1.44645747441388       -0.16649676980541        1.85957361416057
H            0.92224320179466        0.01274636751685       -1.70061013417294
O            2.35173317169035        1.22903081088055       -0.30401556595114
H            0.19301761301988       -1.63582988594414        2.18302308432960
H            0.99180708659046       -0.30137595139045        3.05562337998040
H            1.95478137491150       -1.55092865336129        2.25851375324255
H           -3.47783468089463       -0.03865219338204        0.51226364669695
H           -1.12367472573288        0.17067090015476       -3.04185108575558
H           -3.33813700205950        0.13479841942561       -1.94719318178019
H            2.97575995512909        0.32125755453264        1.39198997589736
