15
 energy: -20.106844093182 gnorm: 0.000682786975 xtb: 6.5.0 (97a52f5)
C            1.65084538098916       -0.17027441851324        1.29802904700866
N            0.99225453179865       -0.11266161071287        0.00670626411271
C           -0.23453847513361       -0.87950696846267       -0.02962966630895
C           -1.47700518382054       -0.32102637663458        0.62374058125683
C            0.83472816528231        1.25893169442055       -0.44300032747404
H           -0.50304305940847       -1.04226142398175       -1.08350017366199
H           -0.04660009762603       -1.86848405077072        0.40105891984581
O           -1.59232569455179        0.71576986506019        1.21325489611497
H            0.21128515035950        1.86925039415260        0.21790981347326
H            0.40208829220553        1.25463195542804       -1.44354443242031
H            1.80114820034040       -1.21260633513977        1.57831504216542
H            1.08571900395545        0.33308836266064        2.09391418202639
H            2.62686763717786        0.30510508848389        1.21078285209720
H           -2.35090498473364       -0.99381034059795        0.47979313489262
H            1.82460213316519        1.71061717460765       -0.50448813312862
