15
 energy: -20.101290711919 gnorm: 0.000768307323 xtb: 6.5.0 (97a52f5)
C            1.81187973830531       -0.23731459883867        1.19885293288339
N            0.95383330132509       -0.08307537247927        0.04080521074801
C           -0.25819197969018       -0.88134081424037        0.11507915282925
C           -1.61141280730495       -0.25942797921672        0.34954379459194
C            0.76843505649082        1.32098853738704       -0.27268907538215
H           -0.37696084855646       -1.39600478196212       -0.85510710406752
H           -0.13487815050953       -1.67221656040728        0.86020069266800
O           -1.90516937925698        0.88916692431957        0.51920654740405
H            0.28759956538561        1.89234347305894        0.52690883206255
H            0.18049826981951        1.41035579821329       -1.18472380319976
H            1.98788471781590       -1.29617449266185        1.38581177968808
H            1.39843066255435        0.22108571332462        2.11025128017857
H            2.77147522900168        0.23094070782736        0.98235091469161
H           -2.40080623447182       -1.04328874256798        0.30822715977575
H            1.75250484909158        1.75072619824356       -0.46537731487156
