15
 energy: -20.103264294356 gnorm: 0.000415324860 xtb: 6.5.0 (97a52f5)
C            1.96830895839056       -0.38155569779913        0.91282694078152
N            0.86135158109015        0.01130938192312        0.07018068360132
C           -0.31897472155767       -0.76507126873990        0.38612822686419
C           -1.65735787730751       -0.35401718774680       -0.15666056690560
C            0.67677122703234        1.44768716949173        0.05131654570107
H           -0.14980376677565       -1.79551733076639        0.04843353707777
H           -0.48557977905389       -0.82452927527891        1.48431939695957
O           -1.95319888512093        0.57957406163558       -0.84528571075818
H            0.42622775409202        1.85587384181347        1.04403957876222
H           -0.11421966064554        1.70690186172820       -0.64394869143417
H            2.10144561591303       -1.46171754192872        0.85782936247067
H            1.82372145157771       -0.09908362115022        1.96852326735395
H            2.87605502823526        0.09360859554619        0.54492926136098
H           -2.43541790638526       -1.07250759232091        0.18126341094456
H            1.60579200051540        1.90581259359274       -0.28455526277972
