15
 energy: -20.102763885090 gnorm: 0.000855322132 xtb: 6.5.0 (97a52f5)
C            1.80858713653315       -0.52213950028208        0.40669537215859
N            0.63863865860829        0.29014884801376        0.17530867009456
C           -0.58054365397793       -0.32732885278003        0.65319472732725
C           -1.36469908103554       -0.98537069546104       -0.45654820047657
C            0.80953206249106        1.66214557108175        0.59078887082342
H           -0.40041366356109       -1.08394334783703        1.43451047631742
H           -1.24761705739258        0.42154278262023        1.09659032994835
O           -1.07398280285684       -1.01089057827508       -1.61484886165149
H            0.98942991290180        1.76728071839509        1.67434304871182
H           -0.07716291219439        2.23509691949596        0.32563009885011
H            1.62846746868050       -1.52300743377049        0.01798367843382
H            2.07646752085477       -0.59524530528587        1.47430223077850
H            2.64978024261438       -0.09543429139307       -0.13728479232881
H           -2.29334443642770       -1.47006238530784       -0.08184258504418
H            1.66197959476210        2.08397755078576        0.06051393605716
