24
 energy: -38.549932600173 gnorm: 0.000961808973 xtb: 6.5.0 (97a52f5)
N            1.25107595041293        0.34584571869377       -1.59971601109260
C            0.42775697088582        0.10422852956950       -0.55284079009049
C           -0.30380400355438       -1.16991386492639       -0.54949207148415
C            0.06143697433373       -2.19186679946688       -1.43198105002608
C            0.40706472260571        1.03343964095075        0.47121995203688
C           -1.49125347984139       -1.32795548989644        0.16891445757280
H            1.64643616011965        1.28914838380552       -1.60700608834752
C           -0.20380840035751        1.04526766788543        1.77437004213526
N            0.68961666897663        3.06289027337210        1.42867716613315
C            1.00645731691047        2.35856285997387        0.30158675625769
C           -0.00427452777794        2.26320953132538        2.31693130454377
C           -2.22398298977598       -2.49666020346880        0.08434429729049
C           -0.67031498737851       -3.36061819102167       -1.51262720945124
C           -1.81383726367044       -3.52363669715651       -0.74894891944283
H           -1.86492639063665       -0.51587356593295        0.76878905176137
H            0.96952159591394       -2.10655023973166       -2.01070515864757
H            0.98775227780057        4.00776519682298        1.60286740969587
O            1.64333031611552        2.81446539765168       -0.65051382408051
H           -3.13259817008073       -2.59902181924939        0.65947392842219
H           -0.35239045875266       -4.14467158773690       -2.18434283164124
H           -2.38775140496752       -4.43577048868894       -0.81483966741653
H           -0.66151913554574        0.21481857075363        2.27225118000095
H           -0.30121860776142        2.64389557730612        3.27513988647560
H            1.04561883602540       -0.07358339083355       -2.49071282060473
