24
 energy: -38.545292945867 gnorm: 0.000870147321 xtb: 6.5.0 (97a52f5)
N            1.51159442258874        0.15958252086247       -1.31979382384855
C            0.43781200234168        0.08227934404163       -0.50214051449763
C           -0.39359964023426       -1.13233772639255       -0.60924306221919
C           -0.30334755841758       -1.96236436394581       -1.73333729030078
C            0.26793815536677        1.11180842886333        0.41296270666133
C           -1.14414240901795       -1.61169729592743        0.46738697583976
H            1.99168946632169        1.06459805535154       -1.29260058728081
C           -0.62474181674964        1.33816323020904        1.52057709334742
N            0.75131060036419        3.09127593423947        1.41160160272928
C            1.15397096188574        2.28088387477395        0.38933286966856
C           -0.31138972831811        2.52299929875247        2.08276591746053
C           -1.84043287550210       -2.80295972325393        0.39004822590904
C           -1.00204149627232       -3.15110239457692       -1.81388653527252
C           -1.78409144305584       -3.57787970119578       -0.75485064644342
H           -1.15260027226896       -1.07398195570009        1.39671852817497
H            0.26754969196940       -1.66311365273218       -2.60060619465519
H            1.18913167397064        3.96808517594089        1.63813515510587
O            2.08258427481338        2.55363725995487       -0.37701244933586
H           -2.41706147800748       -3.13672518458920        1.24031284985118
H           -0.92461954981804       -3.75393513772195       -2.70699446442362
H           -2.32723327990262       -4.50889544434550       -0.81558099888451
H           -1.45411737160541        0.73626463845499        1.82792924771979
H           -0.75688181885997        3.01885686877515        2.92352752635493
H            1.50710750840777       -0.31602804983829       -2.20441213166042
