24
 energy: -38.550719324743 gnorm: 0.000577055843 xtb: 6.5.0 (97a52f5)
N            1.55302679340985       -0.57488250434811        1.40909904266040
C            0.56806787697699       -0.21945319123732        0.55552431908738
C           -0.27563330720656       -1.29711406467832       -0.00748376874879
C           -1.55679997633561       -1.51540243939564        0.48570933873197
C            0.31866086405801        1.10082183292664        0.29687118160299
C            0.22509442625312       -2.12816990520060       -1.00320848278964
H            2.16753379891968        0.19611964722768        1.67311024533748
C           -0.74971288531495        1.72609443135800       -0.43817771369036
N            0.63674199511291        3.32894627699572        0.27941685755305
C            1.19088621887089        2.17585081159715        0.76354306932237
C           -0.52509801067260        3.05350248753121       -0.42508875365157
C           -0.55516209488728       -3.14938228618622       -1.51570252231445
C           -2.33158510035272       -2.54131737546889       -0.02490368319192
C           -1.83356996069510       -3.35806322938014       -1.02662806530542
H            1.22172871385992       -1.96137164785933       -1.38730211997140
H           -1.93912497728923       -0.87457215605571        1.26605159525568
H            1.01225145887166        4.24819435776992        0.44131442299853
O            2.22240394879673        2.10198799388115        1.42921544879811
H           -0.16304617371831       -3.78502563991642       -2.29598835704968
H           -3.32656618395800       -2.70586591766555        0.36167776431469
H           -2.44072029420725       -4.15727830348079       -1.42513258872570
H           -1.56456978129799        1.21051600451174       -0.90630798083216
H           -1.09648847916786        3.85257689832516       -0.85705393433457
H            1.96606410997382       -1.48930308125145        1.32228969494300
