24
 energy: -38.544903266489 gnorm: 0.000907075097 xtb: 6.5.0 (97a52f5)
N            1.83831070087691       -0.49056705241023        0.74937100244366
C            0.59860953416796       -0.19344489607715        0.29825376155408
C           -0.25976230900152       -1.33534917603740       -0.07431552032108
C           -1.64516799077117       -1.23141227086797       -0.21420155657087
C            0.23586594796240        1.14729801252942        0.31072345674167
C            0.31822247338975       -2.56264057436322       -0.42501594662895
H            2.43960671281171        0.32800199974388        0.88825248844143
C           -0.98640580688581        1.86912297268157        0.06644898226230
N            0.58637235553111        3.37928359984014        0.53748471927255
C            1.23072308724481        2.17950922947114        0.62660112049969
C           -0.73845742827754        3.18701736347679        0.20682209513817
C           -0.44688394083137       -3.62711137342622       -0.85966532371369
C           -2.41228559092333       -2.29708288976442       -0.64515866608481
C           -1.81985193050553       -3.50195395128061       -0.97889161086410
H            1.38758941766096       -2.70875325856636       -0.38302824393004
H           -2.14795186679412       -0.33322408491380        0.09006217630025
H            1.02773457541557        4.26638082480405        0.71080838848640
O            2.42763303950900        2.06620818361593        0.90848079555458
H            0.03598818081272       -4.55845646902930       -1.11768870066492
H           -3.48326481079653       -2.18130218961860       -0.72514035300234
H           -2.41769539783837       -4.33138080902268       -1.32537799780121
H           -1.93713736395607        1.47780773870724       -0.22757232299666
H           -1.40475347414074        4.02157993822309        0.10338619337041
H            2.29734788534113       -1.33212188771517        0.45020408251398
