15
 energy: -20.104236667949 gnorm: 0.000389348099 xtb: 6.5.0 (97a52f5)
C            1.65639421905515       -0.47475124547260        0.05433799510834
N            0.58763435378139        0.50827785388483        0.03114332928743
C           -0.69762321432229       -0.02832312261643        0.43136732522991
C           -1.16029533246983       -1.32043287022805       -0.17908645837111
C            0.93115037727454        1.63100833037717        0.88072648419512
H           -0.74671471999135       -0.20202012289651        1.52854935005622
H           -1.46770807923085        0.71874516883537        0.20317847779223
O           -0.61982506404915       -2.00786776057268       -0.99610418794776
H            1.04070032680264        1.34447753375563        1.93904460825147
H            0.15890891452311        2.39643999039826        0.80452097361817
H            1.41831877206399       -1.28939216490952       -0.62241858334153
H            1.83200037861511       -0.88231822456337        1.06219900189306
H            2.57012233077092        0.00410531615150       -0.29329356920003
H           -2.14934351185820       -1.60896246613689        0.23798406430441
H            1.87139822903482        2.05778378399327        0.53718718912406
