15
 energy: -20.105549547607 gnorm: 0.000671816927 xtb: 6.5.0 (97a52f5)
C            1.69756349407539       -0.52106636428820        0.23397224895314
N            0.59574351840247        0.40821034737231        0.11267106984207
C           -0.64626619141835       -0.16263245070720        0.58040174239820
C           -1.23564475207950       -1.18284452634305       -0.35689440248861
C            0.88652703131550        1.67945881514339        0.73755283889055
H           -0.56038593355042       -0.63878593352349        1.57859812804146
H           -1.39451214641183        0.63245062054749        0.67454377258734
O           -0.79614812473388       -1.53336222129363       -1.41173962114221
H            1.05060209749967        1.59597740473019        1.82478810555182
H            0.06222074812982        2.36923035891300        0.56140566141869
H            1.45034226386869       -1.43831725531801       -0.29508549259391
H            1.93246540550001       -0.76332048834560        1.28391640174426
H            2.57980132366027       -0.08571614875006       -0.23162714206685
H           -2.18293838138564       -1.60672044684421        0.04152296645229
H            1.78574866712782        2.09420726870707        0.28530972241174
