34
 energy: -53.423445048425 gnorm: 0.000633978024 xtb: 6.5.0 (97a52f5)
H            1.07636378300242        1.01163978577254       -1.21391762447571
N            0.85449739821803        0.15121795649641       -0.70645388302342
C           -0.44668064781107        0.20609279304040       -0.23105340813146
C           -1.32174796995232       -0.98834718208898       -0.36582787365500
C            1.99272852991258       -0.29800371327547       -0.04252660746178
C           -1.03445215969435        1.41847858359907       -0.01414316966399
C           -2.33859124914235        1.71385133099599        0.52496083085884
N           -1.25527600697746        3.65296136514591        0.24569068931025
C           -0.35466386811120        2.71420629974374       -0.18158899555179
C           -2.42249756701243        3.04780499859487        0.68039491294377
C           -1.36546827290078       -2.07318974671173        0.49924581907328
C           -2.18846263476582       -0.96975275664850       -1.45865986937141
C           -2.23575901343908       -3.12480326239232        0.26650569230694
C           -3.05047732368739       -2.02371092740523       -1.69361147075192
C           -3.07594408051141       -3.10755391092642       -0.83191215071088
C            1.95126416615597       -1.02872321957702        1.14067501320647
C            3.23621458624832        0.02638470426904       -0.58852372611673
C            3.12226823273692       -1.45803061519261        1.73781605177089
C            4.39953476316046       -0.40540827282633        0.01362597792570
C            4.35038379516897       -1.15934325292608        1.17595194201142
H           -1.07397078323095        4.64256471650674        0.25882250514690
O            0.74827950479106        2.95148491456278       -0.65387554650465
H           -0.73814607064225       -2.10214970240910        1.37587577356502
H           -2.17278000222284       -0.12408368450415       -2.13024502726474
H           -2.25816796804074       -3.95924990794944        0.95197590884694
H           -3.70850200273519       -1.99543832550898       -2.54957427525356
H           -3.75197598339642       -3.92993179378755       -1.01256991583255
H            1.00432630929029       -1.22961750036931        1.61303948518646
H            3.27682534634884        0.62352210871394       -1.48764955698349
H            3.07112321239923       -2.02234274508273        2.65783156626005
H            5.35325699513229       -0.14584068941556       -0.42188565250766
H           -3.08040160194751        0.98242081326599        0.77592638072177
H           -3.22147738270312        3.64178125335253        1.08141610334733
H            5.26176996635925       -1.49588839506240        1.64632307077877
