34
 energy: -53.420808378175 gnorm: 0.000585518238 xtb: 6.5.0 (97a52f5)
H            1.04868512238281        1.20030765844733        1.18691659564668
N            0.93638320357565        0.73571102578769        0.29249847703534
C           -0.41184465996463        0.60894036369204       -0.01803896968777
C           -1.14342837769459       -0.68072056289024        0.09710055104648
C            1.92061173129031       -0.23392129787611        0.12207435993151
C           -1.14965254085488        1.74416402694237       -0.16747561344934
C           -2.56271254248909        1.86711346441830       -0.43073575874470
N           -1.71660584723972        3.93165185259564       -0.26030916712864
C           -0.62920392833041        3.12041187287523       -0.03703963119930
C           -2.85322309960484        3.17935058588880       -0.49393972371592
C           -1.53984281950515       -1.06527843110722        1.37374510224081
C           -1.39513734039395       -1.52986108137471       -0.97405479434015
C           -2.19776034702087       -2.26627962749948        1.56911194709443
C           -2.05478104136079       -2.72993032066759       -0.77590642350197
C           -2.45134901251480       -3.10377199447654        0.49655521058729
C            1.83766113334633       -1.28491250281766       -0.78767609204537
C            3.13441648505666       -0.02562973787302        0.78585871383320
C            2.91057571020622       -2.13915567139223       -0.96752762639766
C            4.20093019447721       -0.87899278550707        0.59797364313747
C            4.09280356507595       -1.95026404108875       -0.27494575289471
H           -1.67969253455700        4.93687837729499       -0.24104204802727
O            0.48586018246273        3.50796866127189        0.25772776616828
H           -1.34185211417800       -0.41405863123286        2.21322621140142
H           -1.12407667911800       -1.22392980489002       -1.97480634023112
H           -2.50877715419048       -2.54966305419616        2.56376325292788
H           -2.25401742158347       -3.37714944993451       -1.61728471807265
H           -2.96077136053984       -4.04313103602948        0.65140870465117
H            0.94180437951653       -1.43789837863029       -1.36191047347726
H            3.22518359817389        0.81417556213504        1.46057554755504
H            2.82017564180545       -2.95646111763889       -1.66821939114323
H            5.12555925886161       -0.70305003350034        1.12784281209850
H           -3.23697948540892        1.04642760416853       -0.57353492171141
H           -3.79200239568152        3.66344633846202       -0.68636167920004
H            4.92645347599828       -2.61948784335529       -0.42351077038381
