34
 energy: -53.426586815173 gnorm: 0.000465749517 xtb: 6.5.0 (97a52f5)
H            0.62156567186907       -1.97381081546130        0.38821342770221
N            0.64867875991104       -0.99408455403540        0.65933461165309
C           -0.55420125618494       -0.38648181033898        0.37757217414733
C           -1.45412583979782       -1.15800880293348       -0.51674157380794
C            1.91974803104932       -0.45431428790575        0.42981377250477
C           -0.97614685404200        0.78573991267546        0.92507938986823
C           -2.25524133963655        1.42311015421868        0.71373527256507
N           -1.18251084865812        2.56430697221269        2.30646572962599
C           -0.29951706896100        1.55590611195980        1.98940987071862
C           -2.33348965054999        2.47564879493917        1.54702949080328
C           -2.23034573592076       -2.19967432600801       -0.02284704967921
C           -1.48786474074635       -0.86114042488144       -1.87431487157991
C           -3.03876248043766       -2.92890781995991       -0.87684460995644
C           -2.29795393409615       -1.59254236523460       -2.72466507760834
C           -3.07333101057786       -2.62679940350836       -2.22787407292147
C            2.13628526740567        0.88059433759148        0.10519990767140
C            3.00715705592639       -1.32582942416106        0.47672196533242
C            3.42216891838716        1.33584349793272       -0.11990809244697
C            4.28755307172876       -0.86136694488592        0.25366162620964
C            4.50286563950459        0.47552977633126       -0.03777394005333
H           -1.00508396335840        3.25545426073721        3.01553766351042
O            0.76996302501162        1.37563516236853        2.53905780897712
H           -2.20263101916843       -2.42740989930767        1.03290691994945
H           -0.88149064871009       -0.05286798323264       -2.25673028579618
H           -3.64332613006746       -3.73429668394802       -0.48672794932221
H           -2.32229285996291       -1.35524186302570       -3.77797208711696
H           -3.70444835728907       -3.19677585143916       -2.89337048688061
H            1.30421416057204        1.55721688378890        0.00464249158604
H            2.84141983413482       -2.37019390654563        0.70400242810000
H            3.57805578474526        2.37563403183536       -0.36682649312083
H            5.12035732532529       -1.54763964252949        0.30211340168397
H           -2.99180557675850        1.10189222088486        0.00454055385856
H           -3.12640622823604        3.18755550516758        1.67852280431085
H            5.50433599758644        0.84031618669658       -0.20890374049179
