34
 energy: -53.414005298859 gnorm: 0.000850533838 xtb: 6.5.0 (97a52f5)
H            0.82795353227334        0.55289480567580        1.88589781928849
N            0.83017942252348        0.54939186983821        0.87242099767603
C           -0.48299159529829        0.52911308626356        0.34806603056158
C           -1.24130589148065       -0.74842014516059        0.43445525284359
C            1.83924013379115       -0.23891392062342        0.34187792062760
C           -1.05139404906460        1.65491969115893       -0.12546102677384
C           -2.39354174252303        1.82756354899083       -0.63758342108219
N           -1.36134314136856        3.81184977660943       -0.75350288122190
C           -0.40069998431356        2.99351350134024       -0.20137360604030
C           -2.52861831393108        3.11388457084845       -1.00066288493560
C           -1.79508073398429       -1.07881214993288        1.66991644024499
C           -1.34824974448970       -1.65469782915447       -0.61264818472366
C           -2.45877794190410       -2.27846936554022        1.84668659246904
C           -2.00834727576669       -2.85778775959094       -0.43137456917361
C           -2.56171876249229       -3.17501936744823        0.79648030775342
C            1.80673224424945       -0.66656723794505       -0.98469122973939
C            3.01249408967576       -0.42860924368422        1.07436991551012
C            2.87832120440381       -1.34926185226470       -1.52626504972535
C            4.07995829513994       -1.10874941170686        0.52520968645856
C            4.01521779925219       -1.58726229300703       -0.77349421503737
H           -1.22263677828561        4.79198006800609       -0.93424182371136
O            0.70420053665466        3.35023768617234        0.13608020111062
H           -1.71546565178812       -0.37992219849652        2.49115852745030
H           -0.94102237265423       -1.41327057080293       -1.58178642293960
H           -2.89128554173271       -2.51559856148399        2.80757722803571
H           -2.08589777327242       -3.55188063455590       -1.25513501018244
H           -3.07298210342662       -4.11594706580776        0.93494641377949
H            0.94930422390370       -0.43178908593126       -1.59529518377921
H            3.06982321337540       -0.05316793439378        2.08661839923539
H            2.82958415648176       -1.68544459504637       -2.55211102147063
H            4.97494855837144       -1.25752134989098        1.11188191910489
H           -3.12603487146704        1.04912604192647       -0.71110548967128
H           -3.37800195330407        3.61650766778209       -1.42451824941629
H            4.85083279246579       -2.12087073215794       -1.20033336251344
