34
 energy: -53.408401759391 gnorm: 0.000524426579 xtb: 6.5.0 (97a52f5)
H            0.68797856247637       -1.58324050370346       -0.64825041988156
N            0.76576096048550       -0.97880042076277        0.16688157216150
C           -0.48005817661253       -0.44794193529318        0.39052368414101
C           -1.52236374541544       -1.21602554296104       -0.35565437101393
C            2.04414520598065       -0.41103525076356        0.20738551416543
C           -0.89202310147950        0.79207449604054        0.82079034570527
C           -2.28986477443030        1.09077152468826        1.05268368841024
N           -1.18662477790425        3.01791221251745        1.12703599901320
C           -0.21543157648649        2.10024946342867        0.79250041677658
C           -2.41593368419125        2.41168311045046        1.27123639587480
C           -2.01493818307912       -2.43362928743560        0.09874237852186
C           -1.95612498183111       -0.71540324321648       -1.57804903459169
C           -2.94847903001976       -3.13117218824130       -0.64834449779941
C           -2.88211799204078       -1.41953750602366       -2.32565350659052
C           -3.38249701479451       -2.62516496529924       -1.86159528150314
C            2.39972582035122        0.52192319901665        1.18617831120211
C            3.07542139792045       -1.14158080667536       -0.38792047290648
C            3.71817750107283        0.91169484503368        1.32802057939583
C            4.39147862997790       -0.74818626282056       -0.25142039532245
C            4.71688140586686        0.30672984661273        0.58527965667812
H           -1.01478918247999        4.00873895994572        1.15008103109308
O            0.89282583157664        2.42099252804356        0.39230824381323
H           -1.67297135159628       -2.82411916491408        1.04607425499120
H           -1.56806430503871        0.22860722257094       -1.93170758007058
H           -3.33620724839223       -4.07071922305361       -0.28325618938914
H           -3.21581113724739       -1.02418032498720       -3.27353675878865
H           -4.11000999909195       -3.16872666630396       -2.44575463976604
H            1.65816010834822        0.90495272457478        1.86211261189200
H            2.82898364164156       -1.97132837869097       -1.03906810169062
H            3.96885371720150        1.66944662650781        2.05468148471839
H            5.16758880933455       -1.29189645003197       -0.76982212897938
H           -3.06592801731477        0.35423951986564        1.12213316075033
H           -3.28764078530670        2.99019070698374        1.51076667586089
H            5.74529146251958        0.61547811489833        0.69667535312858
