24
 energy: -38.559067235786 gnorm: 0.000510251450 xtb: 6.5.0 (97a52f5)
H            0.47114441066898        0.98356689145843       -0.45963599760972
N            0.30045849448480        0.06296846669927       -0.03986446444974
C            1.36429331916985       -0.81313916054249        0.14586728480670
C            2.35169039041708       -0.89469839264081       -0.83580890169490
C           -0.97910060198615       -0.14859869322033        0.29319790618875
C            1.43416884507099       -1.65260924618249        1.25609076438525
C           -1.93136420468506        0.79854223751710        0.05051784925959
N           -2.80437272107965        2.76217366500475       -0.62432772575052
C           -3.33847006831287        0.81735589818193        0.34662587771535
C           -1.62039287182840        2.08146563727177       -0.57546122598483
C           -3.82355877421625        2.00276428366313       -0.07054473091544
C            2.48572365663838       -2.54032881398681        1.38728609751381
C            3.40085722439518       -1.78090003419464       -0.69277175196565
C            3.47068828790410       -2.60911191306078        0.41650630621040
H            0.67776997182880       -1.59152110593129        2.02426087601868
H            2.28976736744873       -0.24737984948185       -1.69790983850722
H           -2.91178285184826        3.68858534111838       -1.00170153646933
O           -0.53308730471737        2.49644146837311       -0.97687627569059
H            2.53801412290797       -3.17916756486811        2.25649064773217
H            4.16329176400610       -1.83490387437144       -1.45556152132740
H           -3.88570015783200        0.02225763617628        0.81237019523650
H           -4.82204605058784        2.39258956903181       -0.02259928521294
H            4.29004331967659       -3.30335344359128        0.52419819385119
H           -1.22228155752332       -1.07402003242346        0.80093325665986
