24
 energy: -38.556923753693 gnorm: 0.000490390296 xtb: 6.5.0 (97a52f5)
H            0.09905890389544        0.36468441706402       -1.19986390779136
N            0.20011088629054       -0.11474142720099       -0.29895512529504
C            1.29435681184214       -0.94844960296289       -0.05940556253102
C            2.58458967955420       -0.48410201315556       -0.30546712098385
C           -0.77547747883339        0.15479191886374        0.57635891671186
C            1.11522751535883       -2.20203041168496        0.52001134452485
C           -1.81670367599654        0.97048455163385        0.24074859026274
N           -3.07069718615551        2.34318363115718       -1.02966824445834
C           -2.94209133450274        1.42917692299961        1.00950038874219
C           -1.93257653736140        1.58765681827748       -1.07764599370243
C           -3.66800811020653        2.24176345344193        0.21742228131851
C            2.21121244225131       -2.99488848707893        0.80645261787550
C            3.67363947798336       -1.28571663472014       -0.02187782599291
C            3.49120189709794       -2.54144017987008        0.53528600822915
H            0.11479980289976       -2.55355822240658        0.72550564118385
H            2.71869835310713        0.49662219576550       -0.73699113401551
H           -3.41976080964600        2.89246200661082       -1.79686799156359
O           -1.17746899013545        1.48107817682953       -2.04424650489195
H            2.06450793382515       -3.97133604684521        1.24396227776171
H            4.67098870482609       -0.92331340691997       -0.22197444610759
H           -3.15248425548039        1.15949793290176        2.02518658189147
H           -4.57674598288291        2.77297364262428        0.42552758142988
H            4.34456173755550       -3.16305904916112        0.76009856702644
H           -0.68518778528652       -0.27276119616399        1.56818405037475
