24
 energy: -38.556975061065 gnorm: 0.000682781334 xtb: 6.5.0 (97a52f5)
H            0.39860376150391        1.01518184512613        0.60964029718195
N            0.27272697807734        0.06505601672489        0.24551933728456
C            1.31622100140144       -0.86071503611611        0.30453784346659
C            1.70271413515609       -1.56712754824170       -0.83172804227247
C           -0.94805160517813       -0.17642081119512       -0.24719586024009
C            2.05101363312494       -0.99699509307417        1.47991459401478
C           -1.90108782284964        0.79919816482191       -0.28217160807878
N           -2.83183068310904        2.82321417500554        0.04491094698026
C           -3.26980105159023        0.76626196718939       -0.72181260305588
C           -1.65332567548269        2.15092722725925        0.21132352995565
C           -3.78994951770869        1.99132406455541       -0.51418559822510
C            3.11583206785932       -1.87625692927970        1.53107703985245
C            2.76514251024886       -2.44941405460067       -0.76982417650211
C            3.47174449953576       -2.60959327779601        0.41048265563552
H            1.77328238997848       -0.41676301271157        2.34717843003000
H            1.15675308461543       -1.42855565966801       -1.75342301034610
H           -2.97576039269471        3.78718094219833        0.29413382051158
O           -0.61916031381229        2.61426432392456        0.69259813916502
H            3.67335569595691       -1.98820027550698        2.44905086239860
H            3.05389445900280       -3.00054687701039       -1.65248260692604
H           -3.76826089853323       -0.08514443215696       -1.14037616220419
H           -4.77646252740212        2.36258518064361       -0.71472243048619
H            4.30414930116113       -3.29531011511183        0.45403787827453
H           -1.15598603926169       -1.18517080497983       -0.58520330641424
