24
 energy: -38.551670409886 gnorm: 0.000288305406 xtb: 6.5.0 (97a52f5)
N            1.76936724332487       -0.02268649001148       -1.10712458857407
C            0.60010297350739        0.00894793887795       -0.43006488893569
C           -0.27030135329774       -1.17503344814094       -0.53087402360995
C           -0.53728424410047       -1.74703345019756       -1.77356297359401
C            0.31355682373665        1.08662763212916        0.37443762655842
C           -0.78129342813522       -1.78596490187198        0.61224399978482
H            2.27863982498886        0.86301502402951       -1.09452731037860
C           -0.75272817040793        1.33011954453962        1.31020638780222
N            0.58597268632110        3.12116429908908        1.31068784802960
C            1.17011369683801        2.27113635321640        0.41304752736570
C           -0.55782049603258        2.55195319613791        1.84333125327648
C           -1.56333936959707       -2.92127638560972        0.50958839150838
C           -1.32732223407309       -2.87705683418186       -1.87336232690834
C           -1.84375240973297       -3.46716982457839       -0.73215720226169
H           -0.53536911720196       -1.38354781272608        1.58229071412803
H           -0.15865162006375       -1.28281248390075       -2.67397980665244
H            0.95471817727464        4.02484127681732        1.55441188191684
O            2.19977151226686        2.50815475773043       -0.21908536364470
H           -1.95047407330474       -3.38743706370433        1.40372833834691
H           -1.53755648132995       -3.30080258070161       -2.84444776705299
H           -2.45700762981289       -4.35248403216413       -0.81019111601117
H           -1.57573630679182        0.67475407025190        1.51199570522683
H           -1.13617409106813        3.08171286662381        2.57570194361410
H            1.83695508669120       -0.58170868165291       -1.94145425993515
