24
 energy: -38.550686962748 gnorm: 0.000818304852 xtb: 6.5.0 (97a52f5)
N            2.05160421998995       -0.32618917073199       -0.44905259992805
C            0.74563340926901       -0.11237059393045       -0.17472390457746
C           -0.19111193275466       -1.24216789224119       -0.36711922437098
C           -1.07640267260565       -1.24550946756831       -1.43862336420975
C            0.33302459418179        1.08521787451803        0.34112086696736
C           -0.15072495931466       -2.33430330628051        0.49193129615608
H            2.62447561258098        0.51716097193661       -0.40542791233820
C           -0.95161156041986        1.49076767705668        0.84913218114568
N            0.43771802209786        3.23973001499892        0.98281306719535
C            1.21588134788054        2.24287231769047        0.46153472226152
C           -0.84824686932871        2.77995958419770        1.22269471124189
C           -1.00570515675399       -3.40393465195753        0.29567007271726
C           -1.92729278818432       -2.31900929207187       -1.63354879477963
C           -1.89413102456477       -3.39844306558518       -0.76679045801145
H            0.54545013551478       -2.33291996857228        1.31747508469282
H           -1.10105707817025       -0.39934828856352       -2.10981111316080
H            0.77027266280238        4.16571062146364        1.19270543365878
O            2.40077609042602        2.34804622243597        0.14953941937420
H           -0.97625164412744       -4.24578074817569        0.97157330792490
H           -2.61538686461421       -2.31435347471952       -2.46602260100708
H           -2.55909937532342       -4.23542782325877       -0.92010198452623
H           -1.81874143598200        0.86372710164515        0.91051913027597
H           -1.58360021903603        3.43370923837645        1.65099394728178
H            2.29891448643669       -1.01973187066286       -1.13563928398396
