24
 energy: -38.549317913039 gnorm: 0.000378160206 xtb: 6.5.0 (97a52f5)
N            1.99305602397351       -0.45266708597214        0.28139654473770
C            0.68236116050953       -0.17383507331708        0.08707256706078
C           -0.18523719307152       -1.29202849146799       -0.30924190343794
C           -1.47719204507045       -1.10386816284568       -0.80310660449365
C            0.25991801887353        1.11498031797245        0.36293688346487
C            0.23259354612553       -2.60567858429521       -0.06688524301266
H            2.57499658071161        0.37259632947583        0.44553456118310
C           -1.03507705510678        1.73983675251402        0.42697056387171
N            0.49847649270024        3.34553236228708        0.66136585478048
C            1.22920870715500        2.19575342057141        0.55958069363566
C           -0.85282847814730        3.06193716914148        0.61790765589318
C           -0.59087986799727       -3.67983280460101       -0.34246613006864
C           -2.29845598647382       -2.18029242955439       -1.07999979950479
C           -1.86355632452770       -3.47393449116726       -0.84752625811406
H            1.20019505558437       -2.79461899402849        0.37341861216368
H           -1.81196486810099       -0.11219906923032       -1.05383976415856
H            0.90133131468827        4.25286820364697        0.82426334433888
O            2.46106086632757        2.14937382131415        0.59364617933264
H           -0.24184820067705       -4.68355551387384       -0.14837324026266
H           -3.28824489947830       -2.00666624319853       -1.47624390927671
H           -2.50959714094130       -4.31336578908231       -1.05671524633015
H           -1.98559741207595        1.24742195463056        0.41983149775243
H           -1.57831186539439        3.84487989397331        0.72683984673435
H            2.40997957041360       -1.21522750289323       -0.22552570628952
