%RWF=/scratch/liuchw/Gau-1_16_Index_0-farH_in17/,1267GB
%Nosave
%Chk=1_16_Index_0-dma_temp.chk
%Mem=20GB
%Nproc=5
#P MP2/6-311G** Sp Density=MP2 MaxDisk=1267GB 

1_16_Index_0 Gaussian SP Calculation on node165.bme.utexas.edu

0 1
 H    0.275028    0.601752   -0.979504
 N    0.242299   -0.043141   -0.177753
 C    1.316997   -0.909125    0.056543
 C    2.558539   -0.587463   -0.506738
 C   -0.880642    0.068263    0.562691
 C    1.180956   -2.082187    0.809737
 C   -1.893247    0.924501    0.214491
 N   -2.971185    2.510919   -0.965356
 C   -3.145019    1.215171    0.870085
 C   -1.799000    1.781384   -0.969885
 C   -3.771028    2.168104    0.128791
 C    2.290205   -2.897373    1.022853
 C    3.654287   -1.420598   -0.304385
 C    3.529266   -2.575275    0.468996
 H    0.212088   -2.377444    1.201570
 H    2.658110    0.324872   -1.090974
 H   -3.192565    3.193169   -1.678394
 O   -0.877064    1.867256   -1.808460
 H    2.176003   -3.805385    1.609470
 H    4.612036   -1.159372   -0.746885
 H   -3.529082    0.755623    1.771330
 H   -4.728729    2.647865    0.278561
 H    4.386724   -3.221921    0.632035
 H   -0.939223   -0.540617    1.462460



