%RWF=/scratch/liuchw/Gau-3_25_Index_0_GrowFragment_3-farH_in17/,1267GB
%Nosave
%Chk=3_25_Index_0_GrowFragment_3-dma_temp.chk
%Mem=20GB
%Nproc=5
#P MP2/6-311G** Sp Density=MP2 MaxDisk=1267GB 

3_25_Index_0_GrowFragment_3 Gaussian SP Calculation on node165.bme.utexas.edu

0 1
 C   -0.819056   -0.213333   -0.055577
 N    0.385470   -0.449872    0.668656
 C    1.539264    0.219103    0.313535
 C    2.766298    0.009550    1.208937
 C    0.289526   -1.205837    1.914157
 O    1.613469    0.941950   -0.681740
 C   -1.994026    0.095044    0.637347
 C   -3.209553    0.179333   -1.450426
 C   -3.185958    0.283252   -0.060699
 C   -2.032628   -0.119978   -2.138248
 C   -0.840013   -0.325285   -1.449665
 H    1.197123   -1.787583    2.075515
 H   -0.545599   -1.900865    1.823805
 H    0.122606   -0.565836    2.788523
 N    3.913403    0.812630    0.819820
 H    3.055398   -1.048217    1.183354
 H    2.516920    0.234422    2.251586
 H   -1.976557    0.204361    1.718400
 H   -4.094894    0.522085    0.485570
 H   -2.042845   -0.205300   -3.221806
 H    0.073282   -0.562381   -1.982445
 H    4.071153    0.663632   -0.176565
 H   -4.137728    0.331797   -1.994471
 H    3.644936    1.794329    0.879632



