%RWF=/scratch/liuchw/Gau-3_25_Index_0_GrowFragment_3-farH_in17/,1267GB
%Nosave
%Chk=3_25_Index_0_GrowFragment_3-opt_1.chk
%Mem=20GB
%Nproc=5
#P opt=(ModRedundant,maxcycles=400,Loose) MP2/6-31G* MaxDisk=1267GB 

3_25_Index_0_GrowFragment_3 Gaussian OPT Calculation on node165.bme.utexas.edu

0 1
 C    1.746200   -1.050800    0.182500
 N    2.967700   -1.225900    0.938300
 C    4.207900   -0.750700    0.463500
 C    5.417000   -0.912000    1.425500
 C    2.836100   -1.830700    2.266900
 O    4.378600   -0.195400   -0.626700
 C    0.496400   -1.040200    0.823600
 C   -0.690300   -0.693300   -1.276900
 C   -0.699000   -0.876100    0.106100
 C    0.545700   -0.746700   -1.926200
 C    1.741100   -0.912600   -1.209900
 H    3.761900   -2.313800    2.585000
 H    2.072800   -2.615500    2.262000
 H    2.582700   -1.048300    2.988800
 N    6.609300   -0.198000    0.919400
 H    5.638500   -1.984900    1.468800
 H    5.161100   -0.544900    2.425100
 H    0.405700   -1.131600    1.901500
 H   -1.635600   -0.881500    0.655300
 H    0.596700   -0.665300   -3.009300
 H    2.653700   -0.969700   -1.794500
 H    6.757300   -0.466700   -0.053400
 H   -1.621100   -0.513900   -1.835000
 H    6.457400    0.818900    0.980000


