15
 energy: -20.105791786281 gnorm: 0.000257134181 xtb: 6.5.0 (97a52f5)
C            1.98842707144868       -0.42705470322336        0.75579622093868
N            0.79463311778503        0.04389520499904        0.08644815163862
C           -0.38178795321835       -0.66343337760018        0.53859378116921
C           -1.59494459847958       -0.48238258774366       -0.33272191182206
C            0.64820831850533        1.47853009449993        0.22196174446376
H           -0.16813403225881       -1.73827118374974        0.54809139353509
H           -0.68250445957936       -0.38928144644745        1.57162011448245
O           -1.68806891840697        0.18143553764393       -1.32293464352199
H            0.52561921526154        1.79110304040182        1.27234532991319
H           -0.21586624165944        1.80687367616922       -0.34975403687449
H            2.09804694061238       -1.49888576190229        0.59459302465490
H            1.97638045416750       -0.23258170290362        1.84063568479053
H            2.85295744327432        0.07360285706019        0.32340226913772
H           -2.46230486861441       -1.05920539267136        0.05521925432095
H            1.53445951116217        1.96242376546757       -0.18395639682659
