15
 energy: -20.101421519543 gnorm: 0.000561575271 xtb: 6.5.0 (97a52f5)
C            1.59848688588562       -0.33175140329289       -0.33935034132506
N            0.58486674076605        0.59663370160068        0.10652429609725
C           -0.77581996947550        0.11155843232423        0.16422757289187
C           -1.06717731599242       -1.35416529896466        0.37133181648383
C            0.99917938989391        1.40848976569043        1.22566488133457
H           -1.33494206626099        0.66594350487948        0.92253232861986
H           -1.26401610686155        0.33624635724168       -0.80185000371990
O           -0.29947821338256       -2.26565715320093        0.49266664360610
H            1.21962312434507        0.82143546445073        2.13236299942471
H            0.21999356969714        2.13090834220717        1.46362376194817
H            1.23477305905676       -0.86739741458051       -1.21348631724843
H            1.89109859391618       -1.06185428707907        0.42473358217668
H            2.48123014066161        0.24302246122834       -0.62480920006087
H           -2.16460945725578       -1.53746141097783        0.35016153523099
H            1.90190862500650        1.95081693847311        0.94500042454020
