14
 energy: -14.014164155806 gnorm: 0.000149599235 xtb: 6.5.0 (97a52f5)
H            1.60246710352307        0.20856702430055       -1.52893536456184
C            1.15306546424209        0.57776812920297       -0.61039376231501
N           -0.02160068584487       -0.24874021665386       -0.21930725325048
H           -0.09238193554884       -1.01174449219715       -0.90119279300251
H            0.85353479225243        1.61125860506009       -0.77039228936101
H            1.90849826748514        0.56303891259360        0.17150058993255
C           -1.28423132972945        0.50860756975434       -0.29146684727403
C            0.15996081730472       -0.86562434041929        1.10768706472810
H           -1.25501834285766        1.34106969681921        0.41003526040354
H           -1.43715744918559        0.89407949726142       -1.29784197078068
H            1.09216033462621       -1.42621279291691        1.14098875154540
H            0.18874905823850       -0.08845397545193        1.87047782239662
H           -2.12531300590031       -0.13345991015205       -0.03481317858291
H           -0.66413506860543       -1.54138169720098        1.32966198012225
