14
 energy: -14.016263541761 gnorm: 0.000062895818 xtb: 6.5.0 (97a52f5)
H            1.86467001626486       -0.00860131332706       -1.16901511437144
C            1.13856531957719        0.58129401795807       -0.61634310301192
N           -0.03650115403197       -0.23655005810051       -0.23405907230919
H           -0.14386332073637       -0.96502563667249       -0.94961376121082
H            0.83161539473959        1.43912193741296       -1.21054258910003
H            1.61933952639879        0.97090244888932        0.28066055275013
C           -1.28322497706819        0.54984099845745       -0.23372187490794
C            0.18044539966520       -0.92041631643379        1.05313756113627
H           -1.21069853284726        1.35111006206896        0.50089322831522
H           -1.45737922631331        0.98742329867375       -1.21462399800177
H            1.10387469451012       -1.49598680674444        1.02290431851514
H            0.24771392802373       -0.18510607097279        1.85359709566801
H           -2.13057757959798       -0.08318436737431        0.02344678537381
H           -0.64538348858438       -1.59605019383513        1.26928697115448
