%RWF=/scratch/liuchw/Gau-13_34_Index_0-farH_in17/,1267GB
%Nosave
%Chk=13_34_Index_0-dma_temp.chk
%Mem=20GB
%Nproc=5
#P MP2/6-311G** Sp Density=MP2 MaxDisk=1267GB 

13_34_Index_0 Gaussian SP Calculation on node165.bme.utexas.edu

0 1
 C    0.904697   -0.764290   -0.559501
 C   -0.159333   -0.073350    0.028651
 C   -1.426222   -0.815005    0.238240
 O   -2.402404   -0.042805    0.787338
 C   -0.014594    1.267322    0.401411
 O   -1.605865   -1.989620   -0.041222
 C    2.114370   -0.111253   -0.775417
 C    2.265252    1.226513   -0.405789
 H    0.765224   -1.804743   -0.837818
 C    1.200743    1.911605    0.181622
 H   -0.845945    1.794908    0.857213
 H    1.318085    2.952865    0.469987
 H   -3.176098   -0.636740    0.876994
 H    2.942554   -0.645789   -1.233020
 H    3.211272    1.734515   -0.575149



