15
 energy: -26.168844154112 gnorm: 0.000479613375 xtb: 6.5.0 (97a52f5)
C            0.70849045700068       -0.60795415083790       -0.70948973441256
C           -0.17438971743669        0.01910031504259        0.16197559904132
C           -1.44345581970402       -0.64819975109189        0.55528973568844
O           -2.21810377668117       -0.92631633646358       -0.50340882349611
C            0.16809435640758        1.23404069807291        0.74513045774191
O           -1.77786547777138       -0.88920426819066        1.68500874475164
C            1.91395684040568       -0.00379158307191       -1.01898326620674
C            2.24192018593362        1.22038202989545       -0.46020340097877
H            0.44553987238113       -1.56057986378262       -1.14416641098957
C            1.36872539274289        1.83851057511784        0.42011521241895
H           -0.51359696639205        1.69901365560040        1.44120767909155
H            1.62800949870339        2.78943093224770        0.86116214288524
H           -3.03794887117442       -1.36041025203094       -0.21762496027167
H            2.60015655475516       -0.49094805894300       -1.69571220567702
H            3.18220047082959        1.69105904843561       -0.70675678958659
