15
 energy: -26.166725111048 gnorm: 0.000361869557 xtb: 6.5.0 (97a52f5)
C            0.78866361984524       -0.67572472880191       -0.64634873499341
C           -0.13777732053349       -0.04619752262104        0.17468441455311
C           -1.40752874742230       -0.74271644971835        0.53735440584608
O           -2.37684695289002       -0.50176961629055       -0.35457127263805
C            0.12460247311580        1.22187290005534        0.67657932576730
O           -1.57026162903808       -1.43731340074629        1.50369203298114
C            1.97243350689955       -0.03374357717821       -0.96561848712872
C            2.23365799088511        1.23182490543733       -0.46811701310484
H            0.58241130780629       -1.66351095535076       -1.03075404532304
C            1.31017340450822        1.85784491293567        0.35209047347389
H           -0.59664814405734        1.70543729468601        1.31843401196393
H            1.51270345032827        2.84423640314646        0.74197336542807
H           -3.19436754026860       -0.96209916231561       -0.10312264291477
H            2.69210931548415       -0.52414214449439       -1.60403687316031
H            3.15841025533721        1.73013413125632       -0.71869495075036
