15
 energy: -26.168534632430 gnorm: 0.000431742020 xtb: 6.5.0 (97a52f5)
C            0.85916886102782       -0.72836113247143       -0.59536130424647
C           -0.11539493800826       -0.09600800779326        0.16810487711299
C           -1.38586388302887       -0.81147544513455        0.46545150357413
O           -2.44980184351741       -0.16134795347979       -0.02732964774449
C            0.07546587966620        1.21223758576896        0.59667354491817
O           -1.47691656941112       -1.86473393322038        1.03836377496411
C            2.02842096524816       -0.05903663050468       -0.90878998389388
C            2.22787756000407        1.23737294266936       -0.46333487549352
H            0.69696392224077       -1.74180956475082       -0.93037810123835
C            1.25315429307115        1.87035385145613        0.29033350261169
H           -0.69157285180804        1.70344852237853        1.17630577479090
H            1.40753378494992        2.88236240202155        0.63425627059854
H           -3.26592045813934       -0.64518268408073        0.17784240581324
H            2.78511173309338       -0.54991418428971       -1.50251963769279
H            3.14351054461155        1.75622724143083       -0.70607511407424
