15
 energy: -26.171782823828 gnorm: 0.000334417106 xtb: 6.5.0 (97a52f5)
C            0.89897459187658       -0.75132273335014       -0.57361824749215
C           -0.12757417525925       -0.10008661480194        0.10526699907826
C           -1.39132550628600       -0.83074246718542        0.35253798823513
O           -2.46351757150076       -0.02257642702815        0.37860939413481
C            0.02997313731246        1.22500511062526        0.50040841546652
O           -1.48473720571878       -2.02493682327725        0.48429693964217
C            2.07810694573909       -0.08345140724918       -0.84440886059184
C            2.23813238849641        1.23216040749028       -0.43859665624958
H            0.75564627990854       -1.77786655251093       -0.87523923821288
C            1.21641671541707        1.88319128271891        0.23450778768275
H           -0.77314988042407        1.72493641136554        1.01952891087800
H            1.34459734508114        2.90844708443962        0.54868788207530
H           -3.26502517998037       -0.54371828850405        0.54270367066150
H            2.87385003608159       -0.58702195637715       -1.37275403681595
H            3.16136806925634        1.75211697364460       -0.64838895849206
