15
 energy: -26.171996032230 gnorm: 0.000170818886 xtb: 6.5.0 (97a52f5)
C            0.64805381090511       -0.54933546184691       -0.77056074777695
C           -0.19632736469519        0.05886032020735        0.15371299683832
C           -1.48989107262440       -0.55433834682601        0.52920009960203
O           -2.02339220903640       -1.29690804687255       -0.45467462405491
C            0.19946430093993        1.23171611401415        0.79188584761740
O           -2.04438887525603       -0.39976656658319        1.58802504209049
C            1.86842151810052        0.02832760292198       -1.06832142875287
C            2.25093603004223        1.20678764247461       -0.44743556858249
H            0.34107459443573       -1.46669414863949       -1.24867174260360
C            1.41639277130431        1.80801142234500        0.48190747696253
H           -0.46131794148536        1.67692030357274        1.52016912692071
H            1.71945872618582        2.72309223310591        0.96845157501252
H           -2.86669200618846       -1.67549736358881       -0.16077052387277
H            2.52560482387348       -0.44249250836194       -1.78434970883240
H            3.20433591349871        1.65545181407716       -0.68502183056797
