11
 energy: -17.234410474217 gnorm: 0.000531249848 xtb: 6.5.0 (97a52f5)
N           -1.45068922276342       -0.07223911166881        0.31031674726891
C           -0.39651858247106       -0.74324584250373       -0.21318515163562
C            0.82831867793465       -0.69114433178415        0.69294929732589
N            1.22994180828079        0.70332480033513        0.89052101896732
O           -0.45297678250148       -1.38728535146790       -1.23445457908451
H            1.61566265491119       -1.32818166742274        0.26976260303110
H            0.53968583922439       -1.09880243473009        1.66816829777533
H           -2.28174248797492        0.01333560353311       -0.25424441293912
H           -1.27006858494476        0.64817122145359        0.98970532685555
H            2.19123615333544        0.74584594609282        1.21168003190917
H            1.20255351696923        1.19192315816269       -0.00083917947397
