11
 energy: -17.233069767671 gnorm: 0.000341992044 xtb: 6.5.0 (97a52f5)
N           -1.65041884444696       -0.55392270129787        0.29431476451042
C           -0.41200435751348       -0.24804122317347       -0.17049731862584
C            0.69949558557375       -0.33877428603810        0.86898243611170
N            1.74342088605896        0.61639343760750        0.54380390681760
O           -0.19327548396858       -0.01524226399461       -1.33637038238180
H            1.03618014947872       -1.39118758928085        0.85054485982281
H            0.32061434181069       -0.12440644178736        1.87290610396129
H           -2.41979722480987       -0.42979594566348       -0.34611621621430
H           -1.86384345391916       -0.48067775484389        1.27372773979795
H            2.62972065760959        0.32838053749033        0.94580210164242
H            1.86530774412632        0.61897523098181       -0.46671899544221
