11
 energy: -17.227917733252 gnorm: 0.000725161014 xtb: 6.5.0 (97a52f5)
N           -1.29177183559519        0.21088988851428       -0.02166578440265
C           -0.51724266427686       -0.90003674537612        0.08500263933091
C            0.93581172470666       -0.69054403453736        0.50320854174237
N            1.17382428784841        0.45779972420597        1.36527510600213
O           -0.97882895389873       -2.00906739228753       -0.05501067392308
H            1.51964099693567       -0.66973349740203       -0.43340331855575
H            1.20577084783570       -1.59180639013357        1.06028347136568
H           -2.22584363467658        0.06793932622346       -0.37361541617816
H           -0.89504102080175        1.12210674355328       -0.17266959984513
H            2.15756522467661        0.70625820181754        1.33188133318746
H            0.67151702724605        1.27789716542209        1.04109468127621
