11
 energy: -17.227031456958 gnorm: 0.000569394968 xtb: 6.5.0 (97a52f5)
N           -1.37255629099525       -0.87107557519146       -0.01494123994929
C           -0.56197678394658        0.22283701912393        0.05646955738835
C            0.61748698535319        0.06267891932206        1.01273700391855
N            1.86426331845903        0.21506584335506        0.27335364475755
O           -0.72594226219443        1.18456688834012       -0.65176577149983
H            0.53388069653543       -0.89829299683552        1.54623239608878
H            0.56620996917080        0.87765661690687        1.74336878794558
H           -2.20632808711222       -0.77817336718979       -0.57571570212959
H           -1.40882458274366       -1.54184258286907        0.73322006429744
H            2.63139357347261       -0.18518646548838        0.80425973219899
H            1.81779345400109       -0.30653431947381       -0.59683748301653
