11
 energy: -17.231685589537 gnorm: 0.000675330600 xtb: 6.5.0 (97a52f5)
N           -1.59973976116728       -0.70119854020183        0.22868593601658
C           -0.45173810741654       -0.06247090116447       -0.12967306949024
C            0.66404908560448       -0.19354039134104        0.90157235952622
N            1.84924528271442        0.51128611011221        0.45356789265364
O           -0.31515643725057        0.46840063303429       -1.20457991817432
H            0.81621214760458       -1.27918848676130        1.04416702331155
H            0.34038057474147        0.23019817115841        1.85812586153850
H           -2.39428441867089       -0.58232909515474       -0.38076559241054
H           -1.79778575631643       -0.89815714914361        1.19430107549181
H            2.67615640152552        0.13743703130800        0.90816818719732
H            1.96806098863120        0.35126363815403       -0.54319073566057
