8
 energy: -14.443369618766 gnorm: 0.000296494972 xtb: 6.5.0 (97a52f5)
H           -1.50759077429761       -0.95038527497492        0.29318952488485
C           -1.31050656944091        0.06934164445500        0.62897665520244
O            0.09405487371227        0.28995843243133        0.73284761446575
C            0.79165855609547        0.14109226419926       -0.37943817196781
H           -1.72004147009972        0.23156300041300        1.62220953736052
H           -1.74921215034435        0.76688306181090       -0.08686180878969
O            0.36224580432674       -0.15774998825329       -1.45344259817336
H            1.85433173004810        0.33938984991870       -0.16021874298270
