8
 energy: -14.443367289468 gnorm: 0.000517468570 xtb: 6.5.0 (97a52f5)
H           -1.60947495710070       -0.39662944064567       -0.33639844699476
C           -1.35138403761796        0.19719022464474        0.54215833511248
O           -0.03778990951415        0.73370882491078        0.40148383653077
C            0.82551898872834        0.03052977242543       -0.30924004984263
H           -1.39516211907233       -0.43523764167113        1.43054304339730
H           -2.02767066000492        1.04185470473232        0.65120497922120
O            0.62541096797839       -1.01472891263248       -0.85221783111695
H            1.78549173660332        0.57340547823601       -0.33027086630742
