8
 energy: -14.443369607612 gnorm: 0.000405756691 xtb: 6.5.0 (97a52f5)
H           -2.27508480798348        0.67259900123092       -0.12374013707455
C           -1.41693174925225        0.15341456467212        0.29414159229976
O           -0.28224264489088        0.58939036191595       -0.45062779008847
C            0.88084318750471        0.07089242650593       -0.09822084684944
H           -1.53715253066878       -0.92728694891054        0.19897237105066
H           -1.29288127638260        0.40254007050572        1.34959035080787
O            1.07119425535343       -0.72056991589995        0.77612820970327
H            1.66719555631984        0.48911343997984       -0.74898174984909
