24
 energy: -38.550681924543 gnorm: 0.000341121293 xtb: 6.5.0 (97a52f5)
N            1.29341294289218       -0.52002533169183        1.71955232915972
C            0.47962827489603       -0.21207194471739        0.68525470157290
C           -0.31229289628041       -1.30735921568124        0.08129565836585
C           -1.40066740346561       -1.83642079828926        0.76517887493726
C            0.34013987444021        1.08581402714462        0.27672739793405
C            0.00295821964907       -1.78942723437568       -1.18359796631397
H            1.89246646313430        0.25121327220061        2.01571213185869
C           -0.56220299714072        1.67553011798109       -0.67753375398071
N            0.74932369327749        3.29466346394423        0.13787565171444
C            1.16545083590251        2.17210332619476        0.79953502518037
C           -0.28848091450346        2.99265998975362       -0.73043646526417
C           -0.74856588254465       -2.80560173427138       -1.74675589066549
C           -2.15314842508529       -2.84811022533195        0.19593497558075
C           -1.82628276371325       -3.33655297588846       -1.05808293460725
H            0.83978562127042       -1.36644947218339       -1.72011843964990
H           -1.65066862469473       -1.45011106004305        1.74212588362416
H            1.12676922820880        4.21415733343751        0.29377649980500
O            2.06685280946015        2.12662931499016        1.63492159281071
H           -0.49427414983469       -3.18156490694125       -2.72682653810139
H           -2.99816938207841       -3.25489471150602        0.73160852079628
H           -2.41308552357844       -4.12827380130673       -1.49980314834824
H           -1.30994108273148        1.14487478828825       -1.23274153802894
H           -0.74546506040906        3.76784913577467       -1.31508662509658
H            1.67083912292895       -1.45122136748221        1.78232905671640
