9
 energy: -11.390176606035 gnorm: 0.000534464867 xtb: 6.5.0 (97a52f5)
O            0.77080560901549        0.47903377831093       -0.86633410489204
C            0.26115500400535        0.14700549326402        0.40731693911024
C           -1.25778268274346        0.03882032238900        0.31070037744326
H            0.53924828305450        0.91000953908351        1.14976026949139
H            0.68612402986391       -0.80861120351773        0.74972126766772
H           -1.56054427888578       -0.97207008985979        0.05398819361700
H           -1.61131059012907        0.72412661179694       -0.45366189622405
H           -1.71613492803542        0.29940369895988        1.26107817450168
H            1.73017453385448        0.53986984957324       -0.82104824071522
