9
 energy: -11.391867360767 gnorm: 0.000834566106 xtb: 6.5.0 (97a52f5)
O            0.90461153106256       -0.40900650244785       -0.59322738029926
C            0.22062942017272        0.39777933098950        0.34341687379110
C           -1.25568084733811        0.03573830663235        0.30216339568041
H            0.35132956914350        1.46201828193401        0.09711154962492
H            0.61873581579565        0.22808853609475        1.35489213117039
H           -1.64753733232047        0.20627783915267       -0.69665894261955
H           -1.80886333946872        0.64129792731867        1.01459649498232
H           -1.38281612828363       -1.01503601548971        0.54704145660158
H            1.84132431123652       -0.18956869418440       -0.57781356893191
