9
 energy: -11.390266570417 gnorm: 0.000838829427 xtb: 6.5.0 (97a52f5)
O            0.93266882700460       -0.52261140070096       -0.44710832291556
C            0.21383895597656        0.43506627177748        0.30869197093772
C           -1.25820133454978        0.03625325621396        0.29721974009691
H            0.34444669268809        1.42759168830582       -0.14441495411661
H            0.59445354476606        0.46065160874137        1.33905125813893
H           -1.77050072770275        0.46443007871679       -0.55904396214422
H           -1.75216427915864        0.38877859271513        1.19893052931710
H           -1.32812345604165       -1.04617927640952        0.25360624954166
H            1.86531477701751       -0.28639181936008       -0.45541051885593
