9
 energy: -11.391865813146 gnorm: 0.000474114103 xtb: 6.5.0 (97a52f5)
O            0.78645194802846        0.29241035506316       -0.88665157732929
C            0.25357228368383        0.19643810965485        0.41816641789402
C           -1.25513747271873        0.04004446058027        0.31179516209415
H            0.49541624893938        1.10057067374730        0.99646648607682
H            0.68275078747288       -0.67044855178621        0.94230514721973
H           -1.49277824087713       -0.86217346195344       -0.24467901177060
H           -1.67562509728756        0.89147525385399       -0.21578179599664
H           -1.69483369616772       -0.02261010747581        1.30326831817382
H            1.74191924892660        0.39188125831590       -0.83336814636201
