9
 energy: -11.391867360768 gnorm: 0.000834550516 xtb: 6.5.0 (97a52f5)
O            0.90461152933095       -0.40900650367571       -0.59322738096069
C            0.22062942051896        0.39777933125786        0.34341687469697
C           -1.25568084576846        0.03573830554471        0.30216339544003
H            0.35132956722649        1.46201828264036        0.09711154971520
H            0.61873581319290        0.22808853657304        1.35489213305332
H           -1.64753732974725        0.20627783979799       -0.69665894343793
H           -1.80886333707620        0.64129792847113        1.01459649515347
H           -1.38281612785103       -1.01503601652134        0.54704145670473
H            1.84132431017365       -0.18956869408805       -0.57781357036510
