9
 energy: -11.388611500054 gnorm: 0.000198966289 xtb: 6.5.0 (97a52f5)
O            0.75056135561887        0.67570028417304       -0.79366045973741
C            0.26841553359413        0.08169313538155        0.39595746170352
C           -1.25989246472099        0.04275880434090        0.32421883927065
H            0.59928255696390        0.66792316936816        1.26496524079191
H            0.67634059458125       -0.93373641948178        0.49808245818112
H           -1.63423331699451       -0.97391302603291        0.39574799690377
H           -1.56142632437226        0.45419178716089       -0.63535775967063
H           -1.70969828891535        0.63885221764638        1.11208805890547
H            1.71238534424495        0.70411904744376       -0.77052083634840
