9
 energy: -11.390348226537 gnorm: 0.000387535254 xtb: 6.5.0 (97a52f5)
O            0.80375694094750        0.10878148623066       -0.86858352072754
C            0.24981016191548        0.24821685761661        0.42630727948174
C           -1.25675913573149        0.03736795245184        0.31757476515819
H            0.46818866554260        1.25485945651175        0.80971235919312
H            0.69114820883375       -0.49458046408160        1.10540554536497
H           -1.44934771933234       -0.66904291822941       -0.48524973034834
H           -1.75473948741235        0.96884625399959        0.06125020708642
H           -1.66614112807100       -0.33903617495521        1.24942701042446
H            1.75581748330786        0.24217654045577       -0.82432191563302
