9
 energy: -11.388606646160 gnorm: 0.000283548453 xtb: 6.5.0 (97a52f5)
O            0.96073855770095       -0.61632237969388       -0.26291377976385
C            0.20778573099718        0.46431020734614        0.25206322789167
C           -1.26195504411967        0.04092708570681        0.30367133807288
H            0.33298534552544        1.34659289094839       -0.39159779103550
H            0.56968518401571        0.72645396370073        1.25632301287154
H           -1.88136938032726        0.68234954941350       -0.31574641131446
H           -1.64481213755948        0.06017319625320        1.31946175523931
H           -1.33213931563131       -0.97585470143300       -0.07315817111646
H            1.89081406939843       -0.37104081224189       -0.29658219084512
