9
 energy: -11.394246778519 gnorm: 0.000374074782 xtb: 6.5.0 (97a52f5)
O            1.20595400308825       -0.39344783650507       -0.19376936336334
C            0.29353387036498        0.40502603901741        0.52327022029137
C           -1.16004788766537        0.04034073500400        0.23426925472605
H            0.45678782888799        1.46973346562476        0.30002066269164
H            0.52450069401536        0.23180906524027        1.57657914212174
H           -1.39305813504630        0.20629377920337       -0.81666101738915
H           -1.82464084944722        0.65064550689972        0.83934874300860
H           -1.33424930014631       -1.00769089051109        0.46511599437571
H            1.07295177594863       -0.24511885397337       -1.13665063646262
