9
 energy: -11.390259052675 gnorm: 0.000707914879 xtb: 6.5.0 (97a52f5)
O            0.87329167452479       -0.27043575967025       -0.71419685459234
C            0.23095924635814        0.36267558860972        0.37123981526100
C           -1.25858007327759        0.03960206480012        0.30901193010833
H            0.38332277898397        1.45187993477300        0.33432623939062
H            0.65450088436192        0.00847773689792        1.32328077507906
H           -1.54054763875967       -0.09153170566341       -0.73218513560298
H           -1.84844609427069        0.83333531776172        0.75563014719228
H           -1.46937102507949       -0.89334045426962        0.82533293923187
H            1.81660323715862       -0.08307473323920       -0.68091685606785
