9
 energy: -11.390433718074 gnorm: 0.000200310692 xtb: 6.5.0 (97a52f5)
O            0.96252977186409       -0.13748377692512       -0.72550471162374
C            0.21999241757541        0.50263120787934        0.29906264815075
C           -1.22564172144548        0.01763257555972        0.29678396878276
H            0.25159683217350        1.58320614998192        0.10886460113157
H            0.66925793249720        0.32058387292603        1.28096736828709
H           -1.67321661928545        0.20747401978610       -0.67455817880664
H           -1.79462105992346        0.54093078273204        1.06041958248766
H           -1.26456365163361       -1.05117178720840        0.49277904359940
H            1.69639807817781       -0.62621403473164       -0.34729132200885
