9
 energy: -11.390961257911 gnorm: 0.000139142096 xtb: 6.5.0 (97a52f5)
O            0.90836737718330       -0.28215261123198       -0.68473162719806
C            0.21794667998306        0.44634669898138        0.31353044680358
C           -1.24662362541706        0.02917129131186        0.30264949997990
H            0.29038740636033        1.52262865784049        0.09604875723162
H            0.64987556857480        0.25924915971285        1.30370561872505
H           -1.67113619836092        0.21561391273581       -0.67960674388942
H           -1.80102561481868        0.59519938363505        1.04614539517512
H           -1.33285905405130       -1.03190540378253        0.52061719080250
H            1.82680045054648       -0.39656310920292       -0.42683553763030
