9
 energy: -11.392283902465 gnorm: 0.000857473798 xtb: 6.5.0 (97a52f5)
O            1.13103813199308       -0.47976372010073       -0.24102135039653
C            0.27638558760328        0.37348076962741        0.49300267426274
C           -1.19666516198195        0.03816721555681        0.25924157261797
H            0.44815020079286        1.42318093740255        0.22665256153750
H            0.52813216427408        0.22754244633102        1.54671487783028
H           -1.45544015893971        0.17550563624373       -0.78880051121288
H           -1.82604199395340        0.68383748006364        0.86548524047319
H           -1.38620484561086       -0.99761190448778        0.52735909607659
H            1.32237906582262       -0.08674887063664       -1.09711116118886
