9
 energy: -11.391867074493 gnorm: 0.000177168136 xtb: 6.5.0 (97a52f5)
O            1.01084464133177       -0.67467036625051        0.12520914946684
C            0.19094439522502        0.47558129737122        0.14579238071490
C           -1.25601305610704        0.03211779197568        0.29545317901369
H            0.31178725505169        1.04687882133316       -0.78660340730324
H            0.47038395417307        1.12798077802029        0.98638790029979
H           -1.91251802756542        0.89751729182797        0.30747243881862
H           -1.37577890431755       -0.52432713629054        1.22077300532878
H           -1.52836482277384       -0.61528977679686       -0.53331932024445
H            1.93044756498229       -0.40819969119041        0.03035566390506
