24
 energy: -38.553417184430 gnorm: 0.000538758626 xtb: 6.5.0 (97a52f5)
H           -0.31665710313060       -0.25694526136896       -1.19630392323720
N            0.07651439489232       -0.27925620122722       -0.24903225075218
C            1.22446659081521       -1.03911376158788        0.03743735528462
C            2.42609748193376       -0.40975799978309        0.34471075087134
C           -0.58255926859407        0.47550975532752        0.63542392731513
C            1.18114904159353       -2.42480433615935       -0.07674523608499
C           -1.69841415470676        1.17385230056731        0.27345521922608
N           -3.32228346094315        1.95876452541814       -1.07287591184741
C           -2.54085342139807        2.06714503648658        1.02169310144032
C           -2.23223336009659        1.13409873930086       -1.08324145742565
C           -3.49844028070567        2.51341235271557        0.18588082748259
C            2.31931750850209       -3.17270743300617        0.16247189329261
C            3.55937991803843       -1.16478975729345        0.58743615709637
C            3.50795122303130       -2.54574096575693        0.49891703521030
H            0.25171152444595       -2.90367180475142       -0.34604392857670
H            2.45810129361605        0.66823379417531        0.40575234033588
H           -3.90454197473360        2.14039379072329       -1.87293974387262
O           -1.80902465165063        0.50816469859549       -2.05662669909457
H            2.27932033754930       -4.24893182754756        0.08374405219401
H            4.48850376638461       -0.67221721057950        0.83294308287860
H           -2.41746700689107        2.31733061248078        2.05655741813395
H           -4.30869112804046        3.19284734882501        0.36796954985312
H            4.39491291455501       -3.13252102590421        0.68448802749079
H           -0.17050721446677        0.53968264034964        1.63621241278555
