24
 energy: -38.559186390225 gnorm: 0.000734450996 xtb: 6.5.0 (97a52f5)
H           -0.49532259215444       -0.51581168474590       -1.03839450752762
N            0.03530410659885       -0.34130227248520       -0.17839974472796
C            1.19302509408804       -1.06851532552620        0.07477895478657
C            2.31696863898258       -0.47659595224821        0.64852132080044
C           -0.48642549269486        0.61931027181282        0.59570935244433
C            1.25907559422504       -2.39818216821578       -0.34051101534151
C           -1.63888728029350        1.25867613064667        0.24259706189105
N           -3.44600167785271        1.78450520017150       -0.99461813523227
C           -2.35530259413309        2.32862543467583        0.88286919308140
C           -2.37355257766500        0.93725253956749       -0.97877369369021
C           -3.42616112525070        2.61297586372096        0.11689634975720
C            2.40776465614664       -3.13487411916932       -0.12879437654915
C            3.46003975683574       -1.22389567093949        0.86156750672815
C            3.50913751902570       -2.55426177290950        0.48021717439418
H            0.39954637933073       -2.84274396971250       -0.81978186541386
H            2.29126739360635        0.56611592699085        0.92791111033970
H           -4.14249924852395        1.80627494911651       -1.72026184906614
O           -2.10710554024109        0.09461789665192       -1.83536785874775
H            2.44643558984026       -4.16744370676044       -0.44237106558559
H            4.32383036249702       -0.75882117440287        1.31324004075280
H           -2.07523278759817        2.79955039534195        1.80390506881644
H           -4.19602339709357        3.34714305013686        0.25668590986906
H            4.40529782565876       -3.13258446500640        0.64569511481892
H            0.06057338666524        0.89896262328832        1.48796495340138
