24
 energy: -38.551675482317 gnorm: 0.000225184280 xtb: 6.5.0 (97a52f5)
H            0.48286018577583        1.11751808194191        0.24308300376782
N            0.30674451017250        0.11206550576023        0.13350015610674
C            1.35863793939047       -0.82365992433542        0.22992642250795
C            1.94633978475394       -1.33204675097918       -0.92235518464228
C           -0.97466660846638       -0.19680960013067       -0.08080050862567
C            1.83882114241828       -1.20522779551233        1.47732812852646
C           -1.92741784615588        0.77712416453201       -0.17434885778908
N           -2.79026771855263        2.85527850589349       -0.16616761937629
C           -3.35097483163181        0.69725161697571       -0.36021950166311
C           -1.60108328456485        2.19201617663715       -0.04824924788812
C           -3.82982109418827        1.95639865736904       -0.35268361795719
C            2.88570761350413       -2.10496811033081        1.56795626347103
C            2.99128890429526       -2.23350831149107       -0.82438128040007
C            3.46144635012561       -2.62126045662170        0.41903918823449
H            1.38510070048617       -0.79475384863219        2.36707138627530
H            1.57332823199146       -1.02146162116125       -1.88702265616711
H           -2.89005042002755        3.85530219086923       -0.12032844003174
O           -0.49869173965358        2.71190110271441        0.13712869632150
H            3.25326764717107       -2.40345562615843        2.53844757953386
H            3.44343107679385       -2.62926716272784       -1.72160804834676
H           -3.91195892194301       -0.20749522179797       -0.48495853331988
H           -4.83655572089906        2.31066764499112       -0.46336152742580
H            4.27833587696133       -3.32328409819923        0.49278767480292
H           -1.22806375775613       -1.24934711960533       -0.13850247591525
