24
 energy: -38.561545727701 gnorm: 0.000334514361 xtb: 6.5.0 (97a52f5)
H           -0.75887242144723       -0.84385566219877       -0.58960682461998
N           -0.00534601637289       -0.38796725985742       -0.06348088893352
C            1.18189036660514       -1.07565377501211        0.11731229662068
C            2.08261232510601       -0.76284274196222        1.13554720421591
C           -0.31428558359774        0.84772259549476        0.35424422778143
C            1.45564180576207       -2.15737594885165       -0.72227153611496
C           -1.54567716872761        1.38217204807423        0.10995074332444
N           -3.65237310241781        1.52100003073799       -0.67647830511948
C           -2.08286664981094        2.67896654936337        0.42200690874876
C           -2.59429901210486        0.65836833599269       -0.60718721818963
C           -3.34011160655360        2.72260302892258       -0.05972177755909
C            2.62029771890284       -2.88200100751408       -0.56897772075868
C            3.24720629442544       -1.49312636229728        1.27802306177944
C            3.52494226987011       -2.54999937935894        0.42752378173215
H            0.74630309116531       -2.41461179469722       -1.49521409453459
H            1.87037431383769        0.04402786747708        1.82005884713207
H           -4.53170208871128        1.30657547310613       -1.11577165315281
O           -2.55998918830894       -0.47978446929477       -1.07310628691936
H            2.82472801692853       -3.71118299159285       -1.22974801825804
H            3.93819717960671       -1.24048714697473        2.06874998934557
H           -1.56464609749633        3.45649829188830        0.94675235477599
H           -4.06285840559926        3.51483396998153       -0.02367010825836
H            4.43549336142603       -3.11700038965473        0.54593933834137
H            0.45109059751246        1.42210072822814        0.86041165862070
