24
 energy: -38.561472718731 gnorm: 0.000447003285 xtb: 6.5.0 (97a52f5)
H            0.25641400833368        0.57124538199922       -0.94949640501962
N            0.21852860029536       -0.07847496868123       -0.15603061924886
C            1.29195085873343       -0.92668497829828        0.05404283668305
C            2.52622228320106       -0.58527153859423       -0.50274842166608
C           -0.90169979558736        0.03074099475904        0.57162575856157
C            1.18940625019419       -2.09152986444880        0.81438851929059
C           -1.88343648841231        0.90937436509658        0.21632888193297
N           -2.93265079734758        2.51178121206708       -0.96998279328714
C           -3.13463901772659        1.22537977247282        0.85083318371135
C           -1.78512129701044        1.76947003134040       -0.96177273039450
C           -3.73229492968610        2.18088149575799        0.11301506982593
C            2.29973425570704       -2.89126988631409        1.00864162021308
C            3.62769600665738       -1.39293483227555       -0.30492285735508
C            3.52143458298812       -2.54748822616952        0.45499908441635
H            0.23976499971075       -2.38320702280754        1.23610777307305
H            2.60369673716584        0.31508024120989       -1.09440887225247
H           -3.15882340092679        3.20084718714209       -1.66730212046483
O           -0.87282686010475        1.84332616496820       -1.78418934913114
H            2.20727717024506       -3.79403234108606        1.59432387076233
H            4.57681766622425       -1.11910227048869       -0.74110488607498
H           -3.50961562136186        0.76934542647423        1.74521447128590
H           -4.67508623333953        2.67224895453398        0.25788098733892
H            4.38410859019741       -3.17701775753576        0.61056793079163
H           -0.99110356815018       -0.57372953112203        1.46526805700811
