19
 energy: -28.700434284386 gnorm: 0.000426503890 xtb: 6.5.0 (97a52f5)
C            2.26723348628587        0.27126453869252        0.49535890797290
N            1.09415230258821       -0.27222223554437        0.89820605578676
C           -0.10739793147697       -0.09492640013753        0.17202268937547
C           -0.09268574873810       -0.07301711261852       -1.21990263133402
C            1.02677501307108       -0.97854115385310        2.15884270176537
C           -1.32261946781880        0.02954630624025        0.83996008619978
C           -2.49685613037467        0.18479682288300        0.12553325432719
C           -2.47802607399588        0.21572906038740       -1.25768791456108
C           -1.27149362312281        0.08758039422519       -1.92418130662582
H           -1.36200619006665        0.01846079910425        1.91786444994489
H            0.84088320263259       -0.17220814881177       -1.74729211010980
O            2.46585709241248        0.92043343076990       -0.49995470392114
H            2.03082959225083       -1.27965833301747        2.45529774879806
H            0.41534573150601       -1.87426169245324        2.04484387288173
H            0.60861827007496       -0.35519648819026        2.95323656604314
H           -3.43161681944179        0.28394898268940        0.65765482164539
H           -1.24503642657135        0.10488888998786       -3.00340024934150
H           -3.39686878380133        0.33735427933488       -1.81114864225946
H            3.07859451458618        0.04481407031153        1.21533140341227
