19
 energy: -28.698867682087 gnorm: 0.000981325346 xtb: 6.5.0 (97a52f5)
C            2.19485658930949        0.47726278937304        0.60298941607750
N            1.06189086843985       -0.16365511478795        0.97348450488349
C           -0.12588209844942       -0.08280425574051        0.20123485529321
C           -0.05817445143835       -0.05945530868253       -1.18876400346648
C            1.06498849282688       -1.01904504810911        2.13968978777130
C           -1.37044692556928       -0.00104645233928        0.81929849214111
C           -2.52187966010424        0.09186741003809        0.05916578563378
C           -2.45092458192951        0.11050696813136       -1.32278799401878
C           -1.21474101578032        0.03773298418553       -1.94060684311191
H           -1.45368987454478        0.00850739481845        1.89510277656429
H            0.89884739564615       -0.11529868420050       -1.67940388121594
O            2.36688674376577        1.14029353019648       -0.38831708387395
H            0.98719224258469       -2.06682143318609        1.83539043154435
H            0.22934274180978       -0.79554732799028        2.80115202327407
H            1.99313204872294       -0.88138085007342        2.69095559321231
H           -3.47984187242252        0.15665412884792        0.55397689241301
H           -1.14622853903998        0.05268380320064       -3.01802200452005
H           -3.35238170701072        0.18435196042834       -1.91209857510828
H            3.00073460318365        0.32397649588977        1.34814580650699
