19
 energy: -28.698973425075 gnorm: 0.000548957094 xtb: 6.5.0 (97a52f5)
C            1.79190574028884        0.86719599160572        1.31998551600244
N            1.05904988793846       -0.21557076547098        0.98329142990588
C           -0.13959723527820       -0.06652838775777        0.23320315359266
C           -0.33037383901019       -0.79175571344529       -0.93679321072914
C            1.41310539586474       -1.53965359180471        1.43988094515624
C           -1.11480337445716        0.82693013309099        0.65744354002658
C           -2.27485862959025        0.98355486022248       -0.07964061956597
C           -2.47174742182921        0.24969128549928       -1.23674532144858
C           -1.49644429789084       -0.63563742525520       -1.66356792428968
H           -0.95515750270306        1.40214602182975        1.55561339517971
H            0.43539916542306       -1.46748305528420       -1.28855413225011
O            1.55659208496206        2.00980567301657        1.01723221514910
H            2.45368400094153       -1.55274197885485        1.75995522362139
H            1.27924152010998       -2.26808235876563        0.64134713689529
H            0.77996403093765       -1.83618688992379        2.28214164508105
H           -3.02858932560188        1.68095587397473        0.25407318532945
H           -1.63844687684816       -1.20184882727859       -2.57226160332799
H           -3.37926246117483        0.37124125596054       -1.80885011006048
H            2.68402415791741        0.58275489864113        1.91283155573226
