19
 energy: -28.698648073152 gnorm: 0.000628142694 xtb: 6.5.0 (97a52f5)
C            1.85018218974947       -1.45500486910403        0.64077953518535
N            1.01757363346162       -0.45464205693486        0.99521596074884
C           -0.16393356258762       -0.21436870825367        0.23789131155797
C           -0.30381324618062        0.95234002994085       -0.50204912762776
C            1.35860936927486        0.50395567432638        2.01963550053818
C           -1.16014142812332       -1.18025013997734        0.20554505563753
C           -2.30156090097243       -0.96708475544234       -0.54642469332065
C           -2.45256992803996        0.20568899882627       -1.26654304917968
C           -1.45195279055251        1.16248199711941       -1.24424995921925
H           -1.02941830516756       -2.09585862607296        0.76117574636638
H            0.48226309595667        1.69284202705321       -0.49948251943278
O            1.68239441988182       -2.22668475815969       -0.26957921749886
H            2.15271742245192        0.09927285084096        2.64489697266617
H            0.48320671542559        0.70373687721214        2.63960799982579
H            1.70119841216172        1.44870680605214        1.58878414044043
H           -3.07441365076007       -1.72066005512697       -0.57056337234479
H           -1.55893127378423        2.07205145897542       -1.81661033339509
H           -3.34487500027106        0.37116360750794       -1.85145540100824
H            2.73714883807640       -1.49890236878352        1.30401146005985
