19
 energy: -28.698880768021 gnorm: 0.000455185941 xtb: 6.5.0 (97a52f5)
C            2.28263363706199        0.12240376898628        0.37726543065452
N            1.10183663397296       -0.30845199080024        0.87901198993088
C           -0.12142991784331       -0.09476142197716        0.19217448387156
C           -0.16868633509158       -0.17392702685348       -1.19670185919231
C            1.07493004245970       -1.07118612559684        2.10740933189115
C           -1.28388796742692        0.21650582130003        0.89175120423157
C           -2.46859137720519        0.43631070881482        0.21317743542453
C           -2.51192607419987        0.35550971595964       -1.16761826050277
C           -1.35682696205241        0.05261065962187       -1.86702265928948
H           -1.27442780699535        0.30702446247664        1.96689861522062
H            0.72452016300219       -0.40918761915389       -1.75041838349893
O            2.46776475224168        0.68379971899213       -0.67273148429531
H            0.35075307027289       -0.66362998750117        2.81203667663944
H            2.05528799572894       -1.03294516189095        2.57954269996272
H            0.81292598493258       -2.11212109792741        1.90213794821002
H           -3.36150545707444        0.67869818600118        0.77052172626099
H           -1.37770164966991       -0.01296798568032       -2.94449885307371
H           -3.43860461511013        0.52997991925660       -1.69316619608450
H            3.11661687299614       -0.10487952402784        1.07081716363896
