19
 energy: -28.698297115765 gnorm: 0.000343039745 xtb: 6.5.0 (97a52f5)
C            2.27565085590668        0.08887117287802        0.35978133012764
N            1.09325291668956       -0.33115841159029        0.86803860256079
C           -0.13194308399969       -0.11296574345582        0.18961358887117
C           -0.19233682475746       -0.19780421705636       -1.19784999864334
C            1.09930788414206       -1.09029751823480        2.10260027481696
C           -1.27451969879358        0.25296572819502        0.89683793904208
C           -2.46087186899935        0.49290949006294        0.22902542676030
C           -2.52221403145024        0.38803304242760       -1.14995486668372
C           -1.38271760829623        0.04836077370305       -1.85776298371423
H           -1.24173389423230        0.37467810878230        1.96945418352833
H            0.68973625063337       -0.46004933476607       -1.75743183280058
O            2.46134489451443        0.64496849081741       -0.69313924734818
H            0.11401345296036       -1.08579974410962        2.55758344124520
H            1.81757332923986       -0.66786815224316        2.80538479800469
H            1.37784585394323       -2.13033874887655        1.90467716343597
H           -3.33898169243613        0.77482272167956        0.79132194070983
H           -1.41696864686514       -0.02727424175147       -2.93427601451845
H           -3.45015954433108        0.57793894035504       -1.66785888664687
H            3.10740244613169       -0.14120633681683        1.05454112125234
