19
 energy: -28.698301260059 gnorm: 0.000809087797 xtb: 6.5.0 (97a52f5)
C            2.24642732861505        0.25478375558707        0.47054103558476
N            1.07755905308792       -0.26457339568322        0.91453857753977
C           -0.13188435869688       -0.10882500476894        0.19215651704219
C           -0.12958284116884       -0.14892712708524       -1.19873221821911
C            1.08952262012171       -1.05877430564855        2.12697391128026
C           -1.32625218567440        0.14774551476406        0.86069469316130
C           -2.49855307201184        0.32663440643019        0.15008157161138
C           -2.49540330134249        0.26974154608311       -1.23295869805213
C           -1.30619819915650        0.03748291145459       -1.90142523169212
H           -1.34764000603967        0.23150408330085        1.93718281247117
H            0.79100738906348       -0.32845320437347       -1.72807411319124
O            2.43431615540396        0.85919521772074       -0.55498450686939
H            1.74004864065323       -0.60397770635359        2.87372866461743
H            1.44854789426369       -2.07030628798179        1.91343088290420
H            0.08747456440302       -1.13896212705047        2.53742896386001
H           -3.41733769187197        0.52353710071027        0.68280589113734
H           -1.29026353660377       -0.00069843711070       -2.98031168924216
H           -3.41240585002201        0.41327510529991       -1.78417225828555
H            3.06429839697636        0.05838491470514        1.19168119434188
