19
 energy: -28.699817603201 gnorm: 0.000699677554 xtb: 6.5.0 (97a52f5)
C            2.28005794253988        0.14252983297981        0.41300694363001
N            1.09636162659829       -0.34435459523459        0.85744625666475
C           -0.11608755996722       -0.12836130177418        0.16378162764495
C           -0.14153336579346       -0.13015365637195       -1.22777205023283
C            1.06355761114241       -0.99598489076317        2.15182160116299
C           -1.29528120214384        0.11171594620027        0.86516298367498
C           -2.48026888945407        0.32050400099855        0.18355330603581
C           -2.50487025394048        0.30619354389713       -1.20012882884876
C           -1.33067585928356        0.08618121642513       -1.89938344378487
H           -1.29256500328773        0.15544382846967        1.94376182470455
H            0.76705499074132       -0.30027200500691       -1.78016348389615
O            2.47973727967941        0.76706498035303       -0.59776671432604
H            1.16541283509509       -0.27977767869497        2.97064452618018
H            1.86986477813663       -1.72880731142108        2.21239857971746
H            0.12302844320246       -1.53187472417633        2.26135430081367
H           -3.38741954587959        0.50371689142289        0.74058527087932
H           -1.33762528851621        0.07905183622612       -2.97902662307670
H           -3.43175264944101        0.47082970370077       -1.72847847736313
H            3.09668609057170       -0.10485761723016        1.11978840041988
