24
 energy: -35.290156627825 gnorm: 0.000402314689 xtb: 6.5.0 (97a52f5)
C           -0.64001560049934       -0.37068238178348        0.18638842063276
N            0.49524877473892       -0.95677759671329        0.78686684787723
C            1.75359475835937       -0.43889325658607        0.80758249336146
C            1.96440667001764        0.97744710731570        0.27196207971854
C            0.28821601940046       -2.22607774033799        1.46621645723521
O            2.68458937143910       -1.05616417113018        1.29108600908091
C           -1.79990472983196       -0.20412432812820        0.93871006769739
C           -2.90634708385514        0.78390251439930       -0.94770803301533
C           -2.92426832382881        0.36746662533516        0.37237154669958
C           -1.76045984326752        0.60731940092820       -1.70438406195357
C           -0.63329177497548        0.03344024842046       -1.14519599735659
H            1.21156392813859       -2.80079259026063        1.40155023450631
H           -0.52307554712073       -2.76882057291686        0.98527086208011
H            0.05250086526565       -2.07617998806732        2.52247587662753
N            3.36063995852625        1.37393859830771        0.26742941585465
H            1.40584988081602        1.67675246213052        0.90580855797527
H            1.57997487877615        1.10069687605957       -0.73986494743968
H           -1.81670219488516       -0.51757722454832        1.97125850812836
H           -3.81603347525626        0.49342902096275        0.96820827162616
H           -1.74404064609394        0.91077424677580       -2.74053062670249
H            0.23590989036501       -0.14716299231153       -1.75900201591537
H            3.75204983050779        1.16631534838383        1.18560817367827
H           -3.78284311516160        1.23484167492152       -1.38718396569156
H            3.87242650842200        0.74393172884377       -0.34772916470457
