24
 energy: -35.276504559716 gnorm: 0.000812126769 xtb: 6.5.0 (97a52f5)
C           -0.85255224388203       -0.00067263125346        0.19504937384550
N            0.25171988780957       -0.06174636510482        1.09529259693508
C            1.40646815715836        0.57331485179227        0.71258951478976
C            2.73621029005599       -0.18611430473597        0.76238350851835
C            0.20020739577229       -1.18852239536355        2.00908724551162
O            1.36297555563395        1.66769730411503        0.18573271507800
C           -2.10603089570710        0.37411924166753        0.66063923375507
C           -3.02705075234487        0.00488881392376       -1.52320168394152
C           -3.18929991031302        0.37671690778243       -0.19906137824392
C           -1.77801335356509       -0.37225868474690       -1.98567097400199
C           -0.69173312555877       -0.38520470920613       -1.12888736846381
H            1.19371574593887       -1.50297388902835        2.30968393732611
H           -0.31791997332038       -2.03161107698421        1.54709000780084
H           -0.35810425398936       -0.90114337348955        2.90505844981527
N            3.87610834169530        0.64062950632882        0.41544052279486
H            2.66907163110144       -1.00790179969986        0.03932548885910
H            2.94614314162842       -0.63834109614988        1.73551620720018
H           -2.22236062927054        0.67148036875100        1.69165364816471
H           -4.16147193958052        0.67503112243073        0.16434052073013
H           -1.64788094676917       -0.66515090887698       -3.01692959755381
H            0.28463393259285       -0.67628012365297       -1.48816847083622
H            3.64926951654800        1.14554408588880       -0.44112126895317
H           -3.87270612282286        0.01086118220011       -2.19436704429799
H            3.95859054118884        1.38463699341200        1.10571881516780
